@<TRIPOS>MOLECULE
tmp/1h5tA01.pdb
 212 200 0 0 0
SMALL
GASTEIGER

@<TRIPOS>ATOM
      1  N         55.4930   -3.8390   47.4040 N.3     8  LEU8       -0.1245
      2  CA        56.3550   -4.0480   48.5640 C.3     8  LEU8        0.1561
      3  C         55.4140   -4.3150   49.7180 C.2     8  LEU8        0.2260
      4  O         54.6850   -3.4430   50.1320 O.2     8  LEU8       -0.2867
      5  CB        57.2010   -2.8040   48.8500 C.3     8  LEU8        0.0270
      6  CG        58.1300   -2.9450   50.0560 C.3     8  LEU8        0.0019
      7  CD1       58.9910   -4.2310   49.9020 C.3     8  LEU8        0.0001
      8  CD2       59.0780   -1.6750   50.1190 C.3     8  LEU8        0.0001
      9  N         56.0950   -6.0470   52.8970 N.3    10  GLY10      -0.1210
     10  CA        56.8460   -6.6980   53.9760 C.3    10  GLY10       0.1956
     11  C         56.6070   -5.8530   55.1930 C.2    10  GLY10       0.2612
     12  O         55.4640   -5.3810   55.4370 O.2    10  GLY10      -0.2717
     13  N         57.6670   -5.6660   55.9750 N.am   11  GLY11      -0.1956
     14  CA        57.5960   -4.8070   57.1500 C.3    11  GLY11       0.1869
     15  C         57.3280   -5.6020   58.4120 C.2    11  GLY11       0.2309
     16  O         56.7310   -6.6850   58.3450 O.2    11  GLY11      -0.2863
     17  N         49.7920   -8.5270   57.7250 N.3    25  LYS25      -0.1231
     18  CA        49.0150   -7.3020   57.5950 C.3    25  LYS25       0.1693
     19  C         48.3520   -7.1770   56.2420 C.2    25  LYS25       0.2591
     20  O         47.2060   -6.8040   56.1660 O.2    25  LYS25      -0.2718
     21  CB        49.8770   -6.0750   57.7740 C.3    25  LYS25       0.0285
     22  CG        49.0940   -4.7660   57.5870 C.3    25  LYS25       0.0035
     23  CD        50.0730   -3.5600   57.7020 C.3    25  LYS25       0.0206
     24  CE        49.3180   -2.2460   57.5470 C.3    25  LYS25       0.1093
     25  NZ        50.2470   -1.0990   57.4480 N.3    25  LYS25      -0.1314
     26  N         49.1080   -7.4360   55.1710 N.am   26  GLN26      -0.1979
     27  CA        48.5490   -7.2420   53.8350 C.3    26  GLN26       0.1601
     28  C         47.5740   -8.3230   53.4050 C.2    26  GLN26       0.2287
     29  O         47.0800   -8.2700   52.2830 O.2    26  GLN26      -0.2864
     30  CB        49.6650   -7.0120   52.7750 C.3    26  GLN26       0.0394
     31  CG        50.6060   -5.8360   53.1070 C.3    26  GLN26       0.0908
     32  CD        51.7820   -6.2200   53.9890 C.2    26  GLN26       0.2608
     33  OE1       52.6610   -5.4180   54.2360 O.2    26  GLN26      -0.2717
     34  NE2       51.7620   -7.4110   54.5070 N.am   26  GLN26      -0.0878
     35  N         62.4220  -10.0500   51.3990 N.3    82  GLN82      -0.1245
     36  CA        63.2750   -8.9790   51.8990 C.3    82  GLN82       0.1566
     37  C         63.6570   -9.4290   53.2960 C.2    82  GLN82       0.2260
     38  O         62.7970   -9.5130   54.1680 O.2    82  GLN82      -0.2867
     39  CB        62.4860   -7.6740   51.9880 C.3    82  GLN82       0.0367
     40  CG        63.3080   -6.5060   52.5520 C.3    82  GLN82       0.0905
     41  CD        62.5570   -5.2210   52.5140 C.2    82  GLN82       0.2608
     42  OE1       61.3300   -5.2040   52.7090 O.2    82  GLN82      -0.2717
     43  NE2       63.2830   -4.1140   52.4300 N.am   82  GLN82      -0.0878
     44  N         63.4080   -5.1140   56.8160 N.3    85  PRO85      -0.2116
     45  CA        62.8450   -3.8860   56.2380 C.3    85  PRO85       0.1372
     46  C         63.8310   -2.7040   56.3170 C.2    85  PRO85       0.2244
     47  O         63.6160   -1.7760   57.0820 O.2    85  PRO85      -0.2868
     48  CB        61.6480   -3.6090   57.1250 C.3    85  PRO85       0.0268
     49  CG        61.7630   -4.5300   58.3100 C.3    85  PRO85       0.0207
     50  CD        63.0180   -5.3350   58.2200 C.3    85  PRO85       0.0892
     51  N         64.3450   -0.4860   54.0090 N.3    87  GLY87      -0.1210
     52  CA        63.8680    0.7110   53.3190 C.3    87  GLY87       0.1956
     53  C         63.1930    0.4050   51.9930 C.2    87  GLY87       0.2611
     54  O         63.5110   -0.5860   51.3910 O.2    87  GLY87      -0.2717
     55  N         62.2980    1.2930   51.5260 N.am   88  LEU88      -0.1979
     56  CA        61.5950    1.0740   50.2560 C.3    88  LEU88       0.1596
     57  C         62.5640    0.9370   49.0600 C.2    88  LEU88       0.2287
     58  O         62.3430    0.0990   48.2100 O.2    88  LEU88      -0.2864
     59  CB        60.6560    2.2470   49.9110 C.3    88  LEU88       0.0297
     60  CG        59.3170    2.3740   50.6280 C.3    88  LEU88       0.0022
     61  CD1       58.5510    3.4330   49.8940 C.3    88  LEU88       0.0001
     62  CD2       58.6050    1.0550   50.5210 C.3    88  LEU88       0.0001
     63  N         53.2510    0.4490   47.4470 N.3   108  LEU108     -0.1245
     64  CA        53.2520   -0.2350   48.7670 C.3   108  LEU108      0.1561
     65  C         52.0290   -1.1660   48.9030 C.2   108  LEU108      0.2260
     66  O         50.9330   -0.8240   48.4950 O.2   108  LEU108     -0.2867
     67  CB        53.2250    0.7680   49.9070 C.3   108  LEU108      0.0270
     68  CG        54.3670    1.7760   49.7940 C.3   108  LEU108      0.0019
     69  CD1       54.1450    2.8460   50.9010 C.3   108  LEU108      0.0001
     70  CD2       55.7250    1.0220   49.9480 C.3   108  LEU108      0.0001
     71  N         50.1460   -1.7400   51.3160 N.3   110  ASP110     -0.1225
     72  CA        49.0230   -1.3520   52.1610 C.3   110  ASP110      0.1805
     73  C         48.4310   -0.0080   51.7470 C.2   110  ASP110      0.2597
     74  O         47.7960    0.6490   52.5450 O.2   110  ASP110     -0.2718
     75  CB        49.4240   -1.2850   53.6460 C.3   110  ASP110      0.1424
     76  CG        50.6650   -0.4220   53.8910 C.2   110  ASP110      0.3668
     77  OD1       51.0870    0.2940   52.9560 O.co2 110  ASP110     -0.2456
     78  OD2       51.2840   -0.3830   55.0070 O.co2 110  ASP110     -0.2456
     79  N         48.6300    0.3780   50.5020 N.am  111  ASN111     -0.1974
     80  CA        48.1160    1.6620   50.0430 C.3   111  ASN111      0.1688
     81  C         46.8640    1.4680   49.2230 C.2   111  ASN111      0.2292
     82  O         46.8020    0.5950   48.3100 O.2   111  ASN111     -0.2864
     83  CB        49.1740    2.3800   49.2050 C.3   111  ASN111      0.1181
     84  CG        50.0490    3.3270   50.0360 C.2   111  ASN111      0.2629
     85  OD1       50.4460    4.3830   49.5570 O.2   111  ASN111     -0.2716
     86  ND2       50.4970    2.8610   51.1910 N.am  111  ASN111     -0.0877
     87  N         54.2950   12.5670   58.9540 N.3   144  ARG144     -0.1231
     88  CA        54.4100   11.1260   58.8960 C.3   144  ARG144      0.1694
     89  C         54.9490   10.6260   57.5480 C.2   144  ARG144      0.2592
     90  O         55.1980    9.4370   57.3960 O.2   144  ARG144     -0.2718
     91  CB        53.0340   10.4770   59.0080 C.3   144  ARG144      0.0321
     92  CG        52.3340   10.4560   60.3540 C.3   144  ARG144      0.0489
     93  CD        50.7970   10.2020   60.2020 C.3   144  ARG144      0.2205
     94  NE        50.4550    8.7930   59.9350 N.pl3 144  ARG144     -0.0865
     95  CZ        49.2790    8.3690   59.4680 C.cat 144  ARG144      0.5346
     96  NH1       48.2970    9.2370   59.1850 N.pl3 144  ARG144      0.1354
     97  NH2       49.0900    7.0630   59.2830 N.pl3 144  ARG144      0.1354
     98  N         55.1100   11.5080   56.5850 N.am  145  TYR145     -0.1962
     99  CA        55.3160   11.0420   55.2240 C.3   145  TYR145      0.1771
    100  C         56.4730   11.7510   54.5500 C.2   145  TYR145      0.2620
    101  O         57.0050   12.7110   55.0970 O.2   145  TYR145     -0.2715
    102  CB        54.0450   11.3770   54.4110 C.3   145  TYR145      0.0574
    103  CG        52.8180   10.6270   54.8980 C.ar  145  TYR145     -0.0198
    104  CD1       51.8000   11.2880   55.5920 C.ar  145  TYR145     -0.0009
    105  CD2       52.7340    9.2410   54.7940 C.ar  145  TYR145     -0.0009
    106  CE1       50.6790   10.5900   56.0330 C.ar  145  TYR145      0.0417
    107  CE2       51.6360    8.5450   55.2670 C.ar  145  TYR145      0.0417
    108  CZ        50.5830    9.2320   55.8010 C.ar  145  TYR145      0.1957
    109  OH        49.5210    8.5120   56.2900 O.3   145  TYR145     -0.2866
    110  N         56.7380   11.3600   53.2890 N.am  146  GLY146     -0.1954
    111  CA        57.5860   12.1560   52.4050 C.3   146  GLY146      0.1869
    112  C         56.7670   13.3670   52.0760 C.2   146  GLY146      0.2309
    113  O         55.5550   13.2350   51.9220 O.2   146  GLY146     -0.2863
    114  N         61.9410   13.7070   53.8620 N.3   161  GLU161     -0.1231
    115  CA        61.3160   12.5590   54.4730 C.3   161  GLU161      0.1699
    116  C         60.9660   12.8810   55.9300 C.2   161  GLU161      0.2592
    117  O         61.8470   13.2480   56.7170 O.2   161  GLU161     -0.2718
    118  CB        62.2330   11.3460   54.3850 C.3   161  GLU161      0.0402
    119  CG        61.6170   10.0570   54.9210 C.3   161  GLU161      0.1161
    120  CD        60.3880    9.5610   54.1310 C.2   161  GLU161      0.3649
    121  OE1       60.1730    9.9650   52.9560 O.co2 161  GLU161     -0.2457
    122  OE2       59.6760    8.6770   54.6490 O.co2 161  GLU161     -0.2457
    123  N         59.6820   12.8030   56.2640 N.am  162  LYS162     -0.1980
    124  CA        59.1970   13.0180   57.6450 C.3   162  LYS162      0.1596
    125  C         59.8400   14.1910   58.3450 C.2   162  LYS162      0.2287
    126  O         60.3870   14.0790   59.4430 O.2   162  LYS162     -0.2864
    127  CB        59.3970   11.7500   58.4710 C.3   162  LYS162      0.0298
    128  CG        58.6720   10.5600   57.8680 C.3   162  LYS162      0.0038
    129  CD        59.1460    9.1990   58.3970 C.3   162  LYS162      0.0206
    130  CE        58.3110    8.0620   57.8380 C.3   162  LYS162      0.1093
    131  NZ        58.3010    6.9120   58.7920 N.3   162  LYS162     -0.1314
    132  N         53.9030   12.6170   49.7480 N.3   172  VAL172     -0.1245
    133  CA        54.1800   11.7990   48.5340 C.3   172  VAL172      0.1561
    134  C         53.6160   10.3860   48.8060 C.2   172  VAL172      0.2260
    135  O         53.9840    9.7260   49.7750 O.2   172  VAL172     -0.2867
    136  CB        55.7240   11.7280   48.2630 C.3   172  VAL172      0.0252
    137  CG1       55.9490   10.8610   47.0230 C.3   172  VAL172      0.0019
    138  CG2       56.2620   13.2090   47.9800 C.3   172  VAL172      0.0019
    139  N         52.3850    6.2690   48.2950 N.3   174  GLY174     -0.1225
    140  CA        53.1710    5.0700   48.1020 C.3   174  GLY174      0.1811
    141  C         53.0190    4.4350   46.7470 C.2   174  GLY174      0.2280
    142  O         52.9560    3.2030   46.6890 O.2   174  GLY174     -0.2866
    143  N         54.7290    4.8530   42.8010 N.3   176  TYR176     -0.1241
    144  CA        55.8760    5.4980   42.1130 C.3   176  TYR176      0.1605
    145  C         56.0980    4.8280   40.7590 C.2   176  TYR176      0.2264
    146  O         56.0520    3.5960   40.6760 O.2   176  TYR176     -0.2867
    147  CB        57.1550    5.2110   42.9240 C.3   176  TYR176      0.0534
    148  CG        57.0480    5.5070   44.3980 C.ar  176  TYR176     -0.0201
    149  CD1       56.7540    4.5010   45.2990 C.ar  176  TYR176     -0.0009
    150  CD2       57.1890    6.8100   44.8750 C.ar  176  TYR176     -0.0009
    151  CE1       56.6240    4.7920   46.7030 C.ar  176  TYR176      0.0417
    152  CE2       57.1420    7.1000   46.2720 C.ar  176  TYR176      0.0417
    153  CZ        56.8420    6.0740   47.1630 C.ar  176  TYR176      0.1957
    154  OH        56.7280    6.3280   48.5430 O.3   176  TYR176     -0.2866
    155  N         67.4360    7.6920   59.4070 N.3   194  ARG194     -0.1245
    156  CA        66.6800    6.6430   60.0050 C.3   194  ARG194      0.1563
    157  C         67.3540    5.3480   59.7610 C.2   194  ARG194      0.2260
    158  O         66.7530    4.3200   60.0220 O.2   194  ARG194     -0.2867
    159  CB        65.2880    6.4950   59.3630 C.3   194  ARG194      0.0307
    160  CG        64.5210    7.7530   59.0940 C.3   194  ARG194      0.0489
    161  CD        63.0390    7.4690   58.7900 C.3   194  ARG194      0.2205
    162  NE        62.7860    7.0420   57.4010 N.pl3 194  ARG194     -0.0865
    163  CZ        61.7050    6.3690   57.0300 C.cat 194  ARG194      0.5346
    164  NH1       60.8230    5.9950   57.9630 N.pl3 194  ARG194      0.1354
    165  NH2       61.4690    6.1190   55.7420 N.pl3 194  ARG194      0.1354
    166  N         67.7070    4.0040   56.9090 N.3   196  GLU196     -0.1245
    167  CA        67.0060    3.3200   55.8070 C.3   196  GLU196      0.1567
    168  C         67.4540    3.7630   54.4300 C.2   196  GLU196      0.2260
    169  O         68.0560    4.8270   54.2940 O.2   196  GLU196     -0.2867
    170  CB        65.4820    3.5030   55.9440 C.3   196  GLU196      0.0388
    171  CG        64.9330    2.6820   57.1300 C.3   196  GLU196      0.1160
    172  CD        63.4210    2.8120   57.3230 C.2   196  GLU196      0.3649
    173  OE1       62.7010    2.9860   56.3160 O.co2 196  GLU196     -0.2457
    174  OE2       62.9310    2.7400   58.4870 O.co2 196  GLU196     -0.2457
    175  N         66.1530    5.1810   51.4090 N.3   198  GLU198     -0.1231
    176  CA        64.9290    5.9850   51.3080 C.3   198  GLU198      0.1699
    177  C         64.5510    6.2240   49.8400 C.2   198  GLU198      0.2592
    178  O         65.3720    6.6740   49.0380 O.2   198  GLU198     -0.2718
    179  CB        65.2020    7.3890   51.8620 C.3   198  GLU198      0.0402
    180  CG        65.6470    7.4470   53.3260 C.3   198  GLU198      0.1161
    181  CD        64.5160    7.2810   54.3210 C.2   198  GLU198      0.3649
    182  OE1       63.3940    6.9850   53.8910 O.co2 198  GLU198     -0.2457
    183  OE2       64.7270    7.4750   55.5500 O.co2 198  GLU198     -0.2457
    184  N         63.2540    6.1020   49.5750 N.am  199  ILE199     -0.1966
    185  CA        62.7270    6.3190   48.2320 C.3   199  ILE199      0.1727
    186  C         62.7430    7.8230   48.0040 C.2   199  ILE199      0.2616
    187  O         62.9200    8.2890   46.8760 O.2   199  ILE199     -0.2715
    188  CB        61.3080    5.7300   48.1150 C.3   199  ILE199      0.0290
    189  CG1       60.9450    5.6430   46.6240 C.3   199  ILE199      0.0022
    190  CG2       60.3100    6.6030   48.8170 C.3   199  ILE199      0.0023
    191  CD1       61.7840    4.5410   45.9490 C.3   199  ILE199      0.0001
    192  N         62.7130    8.5950   49.0830 N.am  200  THR200     -0.1951
    193  CA        62.7300   10.0560   48.9000 C.3   200  THR200      0.1897
    194  C         64.0780   10.5530   48.3340 C.2   200  THR200      0.2313
    195  O         64.1280   11.5170   47.5560 O.2   200  THR200     -0.2863
    196  CB        62.3790   10.7200   50.2130 C.3   200  THR200      0.1794
    197  OG1       60.9620   10.4920   50.4610 O.3   200  THR200     -0.2208
    198  CG2       62.4650   12.2260   50.1090 C.3   200  THR200      0.0378
    199  N         43.0220    8.5740   49.3080 N.3   223  TRP223     -0.1241
    200  CA        44.2350    7.7810   49.5240 C.3   223  TRP223      0.1605
    201  C         44.1020    7.3170   50.9830 C.2   223  TRP223      0.2264
    202  O         44.1360    8.1320   51.8920 O.2   223  TRP223     -0.2867
    203  CB        45.5100    8.6260   49.2280 C.3   223  TRP223      0.0550
    204  CG        46.7770    7.8990   49.6330 C.ar  223  TRP223      0.0003
    205  CD1       47.1060    6.5910   49.3570 C.ar  223  TRP223      0.0946
    206  CD2       47.8160    8.4130   50.4300 C.ar  223  TRP223      0.0152
    207  NE1       48.3160    6.2780   49.9320 N.ar  223  TRP223     -0.2442
    208  CE2       48.7960    7.3920   50.5770 C.ar  223  TRP223      0.0810
    209  CE3       48.1010    9.6790   50.9240 C.ar  223  TRP223      0.0012
    210  CZ2       50.0060    7.5830   51.2840 C.ar  223  TRP223      0.0191
    211  CZ3       49.3610    9.8860   51.5860 C.ar  223  TRP223      0.0001
    212  CH2       50.2710    8.8390   51.7650 C.ar  223  TRP223      0.0015
@<TRIPOS>BOND
     1   146   145    2
     2   145   144    1
     3   144   143    1
     4   144   147    1
     5   147   148    1
     6   148   150   ar
     7   148   149   ar
     8   150   152   ar
     9   149   151   ar
    10   191   189    1
    11   152   153   ar
    12   189   188    1
    13   142   141    2
    14   151   153   ar
    15   141   140    1
    16   187   186    2
    17   137   136    1
    18   153   154    1
    19     1     2    1
    20    63    64    1
    21   195   194    2
    22   138   136    1
    23   186   185    1
    24   186   192   am
    25   140   139    1
    26   188   185    1
    27   188   190    1
    28    58    57    2
    29   185   184    1
    30   136   133    1
    31    82    81    2
    32   194   193    1
    33    66    65    2
    34   133   134    1
    35   133   132    1
    36     2     5    1
    37     2     3    1
    38    64    65    1
    39    64    67    1
    40   134   135    2
    41     5     6    1
    42   193   192    1
    43   193   196    1
    44   178   177    2
    45    57    56    1
    46    83    84    1
    47    83    80    1
    48    81    80    1
    49   203   200    1
    50   203   204    1
    51   199   200    1
    52   205   204   ar
    53   205   207   ar
    54   200   201    1
    55    85    84    2
    56   184   177   am
    57   204   206   ar
    58     3     4    2
    59    68    67    1
    60    68    70    1
    61    68    69    1
    62   177   176    1
    63    61    60    1
    64     7     6    1
    65    59    56    1
    66    59    60    1
    67   207   208   ar
    68    84    86   am
    69    80    79    1
    70     6     8    1
    71   198   196    1
    72   196   197    1
    73    56    55    1
    74   206   208   ar
    75   206   209   ar
    76    79    73   am
    77    62    60    1
    78   208   210   ar
    79   209   211   ar
    80   201   202    2
    81   210   212   ar
    82   176   175    1
    83   176   179    1
    84    71    72    1
    85    54    53    2
    86    35    36    1
    87    55    53   am
    88   211   212   ar
    89    73    72    1
    90    73    74    2
    91   179   180    1
    92    36    39    1
    93    36    37    1
    94   113   112    2
    95    39    40    1
    96    53    52    1
    97   112   111    1
    98    72    75    1
    99    29    28    2
   100   111   110    1
   101    43    41   am
   102    41    40    1
   103    41    42    2
   104    30    31    1
   105    30    27    1
   106     9    10    1
   107    77    76   ar
   108   121   120   ar
   109    31    32    1
   110   110   100   am
   111    37    38    2
   112    52    51    1
   113   180   181    1
   114    28    27    1
   115    75    76    1
   116    27    26    1
   117   114   115    1
   118    76    78   ar
   119   182   181   ar
   120    10    11    1
   121    32    33    2
   122    32    34   am
   123   120   122   ar
   124   120   119    1
   125   169   168    2
   126   181   183   ar
   127   118   115    1
   128   118   119    1
   129   102   103    1
   130   102    99    1
   131   168   167    1
   132   115   116    1
   133   100   101    2
   134   100    99    1
   135   105   103   ar
   136   105   107   ar
   137   103   104   ar
   138    26    19   am
   139    11    12    2
   140    11    13   am
   141    99    98    1
   142   107   108   ar
   143   104   106   ar
   144   165   163    1
   145   108   106   ar
   146   108   109    1
   147   167   170    1
   148   167   166    1
   149   116   123   am
   150   116   117    2
   151   170   171    1
   152    13    14    1
   153    20    19    2
   154    45    46    1
   155    45    44    1
   156    45    48    1
   157    19    18    1
   158   123   124    1
   159   173   172   ar
   160    46    47    2
   161    98    89   am
   162    44    50    1
   163   163   162    2
   164   163   164    1
   165    48    49    1
   166   171   172    1
   167    14    15    1
   168   172   174   ar
   169    90    89    2
   170   162   161    1
   171    25    24    1
   172    24    23    1
   173    89    88    1
   174    22    23    1
   175    22    21    1
   176    18    17    1
   177    18    21    1
   178   124   125    1
   179   124   127    1
   180   130   129    1
   181   130   131    1
   182   128   129    1
   183   128   127    1
   184    50    49    1
   185   125   126    2
   186    16    15    2
   187   161   160    1
   188    88    87    1
   189    88    91    1
   190    91    92    1
   191   160   159    1
   192    96    95    1
   193    97    95    1
   194   159   156    1
   195   155   156    1
   196    95    94    2
   197   157   156    1
   198   157   158    2
   199    94    93    1
   200    93    92    1
