@<TRIPOS>MOLECULE
tmp/1h5vA01.pdb
 100 97 0 0 0
SMALL
GASTEIGER

@<TRIPOS>ATOM
      1  N          1.6600   51.5010   16.6510 N.3    32  HIS32      -0.1241
      2  CA         0.9540   50.5960   15.7540 C.3    32  HIS32       0.1621
      3  C          0.1260   51.4830   14.7970 C.2    32  HIS32       0.2264
      4  O          0.3340   52.6930   14.7410 O.2    32  HIS32      -0.2867
      5  CB         0.1740   49.5600   16.5800 C.3    32  HIS32       0.0745
      6  CG        -0.2750   48.3150   15.8840 C.ar   32  HIS32       0.0817
      7  ND1       -1.2300   48.3130   14.8880 N.ar   32  HIS32      -0.2268
      8  CD2        0.0570   47.0400   16.1540 C.ar   32  HIS32       0.1154
      9  CE1       -1.4170   47.0420   14.5650 C.ar   32  HIS32       0.1986
     10  NE2       -0.6710   46.2510   15.3330 N.ar   32  HIS32      -0.2212
     11  N         -6.0590   52.5110   14.7800 N.3    36  TRP36      -0.1241
     12  CA        -6.4250   51.4520   15.7100 C.3    36  TRP36       0.1605
     13  C         -5.9950   51.7370   17.1260 C.2    36  TRP36       0.2264
     14  O         -6.7460   51.5270   18.0660 O.2    36  TRP36      -0.2867
     15  CB        -5.7720   50.1570   15.2430 C.3    36  TRP36       0.0550
     16  CG        -6.2940   49.6270   13.9380 C.ar   36  TRP36       0.0003
     17  CD1       -7.6280   49.6070   13.5220 C.ar   36  TRP36       0.0946
     18  CD2       -5.5320   49.0140   12.9070 C.ar   36  TRP36       0.0152
     19  NE1       -7.6890   49.0090   12.2890 N.ar   36  TRP36      -0.2442
     20  CE2       -6.4350   48.6280   11.8930 C.ar   36  TRP36       0.0810
     21  CE3       -4.1600   48.7250   12.7280 C.ar   36  TRP36       0.0012
     22  CZ2       -5.9910   47.9640   10.7350 C.ar   36  TRP36       0.0191
     23  CZ3       -3.7470   48.1030   11.5820 C.ar   36  TRP36       0.0001
     24  CH2       -4.6490   47.7110   10.6110 C.ar   36  TRP36       0.0015
     25  N         -1.2120   54.2140    8.6260 N.3    63  TYR63      -0.1241
     26  CA        -1.7180   53.3460    7.5640 C.3    63  TYR63       0.1605
     27  C         -2.5100   54.1630    6.5700 C.2    63  TYR63       0.2264
     28  O         -3.2830   55.0400    6.9460 O.2    63  TYR63      -0.2867
     29  CB        -2.6410   52.2640    8.0980 C.3    63  TYR63       0.0534
     30  CG        -1.9760   51.0030    8.6180 C.ar   63  TYR63      -0.0201
     31  CD1       -1.2260   50.9550    9.7970 C.ar   63  TYR63      -0.0009
     32  CD2       -2.1010   49.8180    7.9160 C.ar   63  TYR63      -0.0009
     33  CE1       -0.7040   49.7630   10.2540 C.ar   63  TYR63       0.0417
     34  CE2       -1.5680   48.6340    8.3580 C.ar   63  TYR63       0.0417
     35  CZ        -0.8530   48.6120    9.5490 C.ar   63  TYR63       0.1957
     36  OH        -0.3780   47.4140   10.0710 O.3    63  TYR63      -0.2866
     37  N         -6.4720   49.7240    5.0860 N.3    66  SER66      -0.1217
     38  CA        -6.8520   49.1180    6.3370 C.3    66  SER66       0.1889
     39  C         -7.5980   50.0720    7.2430 C.2    66  SER66       0.2288
     40  O         -7.4430   50.0810    8.4880 O.2    66  SER66      -0.2866
     41  CB        -5.6690   48.4460    7.0590 C.3    66  SER66       0.2089
     42  OG        -4.9170   47.6200    6.2240 O.3    66  SER66      -0.2183
     43  N          0.9750   48.9060    3.1120 N.3   100  LEU100     -0.1245
     44  CA         1.1930   47.5010    3.4480 C.3   100  LEU100      0.1561
     45  C          0.3120   46.6300    2.5280 C.2   100  LEU100      0.2260
     46  O          0.7810   46.0700    1.5310 O.2   100  LEU100     -0.2867
     47  CB         0.9720   47.1980    4.9170 C.3   100  LEU100      0.0270
     48  CG         1.2260   45.7790    5.3270 C.3   100  LEU100      0.0019
     49  CD1        2.6870   45.3390    5.0860 C.3   100  LEU100      0.0001
     50  CD2        0.8610   45.5700    6.7840 C.3   100  LEU100      0.0001
     51  N         12.1160   40.8810   11.3210 N.3   199  TYR199     -0.1241
     52  CA        11.5890   40.2220   12.5160 C.3   199  TYR199      0.1605
     53  C         12.6490   39.2770   13.0780 C.2   199  TYR199      0.2264
     54  O         13.1890   38.4340   12.3610 O.2   199  TYR199     -0.2867
     55  CB        10.3320   39.4380   12.2070 C.3   199  TYR199      0.0534
     56  CG         9.1000   40.2990   12.2790 C.ar  199  TYR199     -0.0201
     57  CD1        8.6820   41.0220   11.1910 C.ar  199  TYR199     -0.0009
     58  CD2        8.4110   40.4250   13.4750 C.ar  199  TYR199     -0.0009
     59  CE1        7.5740   41.8430   11.2840 C.ar  199  TYR199      0.0417
     60  CE2        7.2950   41.2480   13.5920 C.ar  199  TYR199      0.0417
     61  CZ         6.9060   41.9670   12.4860 C.ar  199  TYR199      0.1957
     62  OH         5.8200   42.8270   12.5640 O.3   199  TYR199     -0.2866
     63  N          8.6790   47.9770   16.4590 N.3   259  TRP259     -0.1241
     64  CA         7.2500   47.7110   16.2790 C.3   259  TRP259      0.1605
     65  C          6.7600   46.8270   17.4020 C.2   259  TRP259      0.2264
     66  O          7.2240   45.6880   17.4690 O.2   259  TRP259     -0.2867
     67  CB         7.0180   46.9850   14.9250 C.3   259  TRP259      0.0550
     68  CG         5.5920   46.7910   14.5870 C.ar  259  TRP259      0.0003
     69  CD1        4.8540   45.6710   14.8440 C.ar  259  TRP259      0.0946
     70  CD2        4.7160   47.7160   13.9300 C.ar  259  TRP259      0.0152
     71  NE1        3.5580   45.8850   14.4250 N.ar  259  TRP259     -0.2442
     72  CE2        3.4550   47.1200   13.8530 C.ar  259  TRP259      0.0810
     73  CE3        4.8750   49.0030   13.4510 C.ar  259  TRP259      0.0012
     74  CZ2        2.3450   47.7540   13.2710 C.ar  259  TRP259      0.0191
     75  CZ3        3.8020   49.6410   12.8760 C.ar  259  TRP259      0.0001
     76  CH2        2.5450   49.0140   12.8020 C.ar  259  TRP259      0.0015
     77  N         -2.0620   45.5960   22.2060 N.3   264  LYS264     -0.1245
     78  CA        -2.6110   44.4510   21.5210 C.3   264  LYS264      0.1561
     79  C         -1.9780   43.1750   22.0320 C.2   264  LYS264      0.2260
     80  O         -0.7550   43.1270   22.2820 O.2   264  LYS264     -0.2867
     81  CB        -2.3670   44.5730   20.0190 C.3   264  LYS264      0.0271
     82  CG        -3.0030   43.4530   19.1940 C.3   264  LYS264      0.0035
     83  CD        -3.0800   43.7020   17.7420 C.3   264  LYS264      0.0206
     84  CE        -3.7190   42.5690   17.0040 C.3   264  LYS264      0.1093
     85  NZ        -4.0080   42.9200   15.5950 N.3   264  LYS264     -0.1314
     86  N         -0.3880   40.5650   20.9700 N.3   266  GLU266     -0.1245
     87  CA         0.4840   39.9400   19.9870 C.3   266  GLU266      0.1567
     88  C          1.9130   40.0980   20.5190 C.2   266  GLU266      0.2260
     89  O          2.2150   41.0570   21.2200 O.2   266  GLU266     -0.2867
     90  CB         0.3140   40.5370   18.5800 C.3   266  GLU266      0.0388
     91  CG         0.7130   41.9760   18.4000 C.3   266  GLU266      0.1160
     92  CD         0.3560   42.5600   17.0630 C.2   266  GLU266      0.3649
     93  OE1       -0.4300   41.9110   16.3110 O.co2 266  GLU266     -0.2457
     94  OE2        0.7630   43.6890   16.7450 O.co2 266  GLU266     -0.2457
     95  N          4.8330   40.9950   19.3550 N.3   268  SER268     -0.1217
     96  CA         5.6330   42.1740   19.1050 C.3   268  SER268      0.1889
     97  C          5.2030   43.3950   19.8810 C.2   268  SER268      0.2288
     98  O          5.9240   44.3860   19.9100 O.2   268  SER268     -0.2866
     99  CB         5.6830   42.4840   17.6070 C.3   268  SER268      0.2089
    100  OG         4.3510   42.7810   17.1720 O.3   268  SER268     -0.2183
@<TRIPOS>BOND
     1    46    45    2
     2    45    44    1
     3    43    44    1
     4    44    47    1
     5    47    48    1
     6    37    38    1
     7    49    48    1
     8    48    50    1
     9    42    41    1
    10    38    41    1
    11    38    39    1
    12    27    28    2
    13    27    26    1
    14    39    40    2
    15    26    29    1
    16    26    25    1
    17    32    34   ar
    18    32    30   ar
    19    29    30    1
    20    34    35   ar
    21    30    31   ar
    22    35    36    1
    23    35    33   ar
    24    31    33   ar
    25    24    22   ar
    26    24    23   ar
    27    22    20   ar
    28    57    59   ar
    29    57    56   ar
    30    59    61   ar
    31    51    52    1
    32    23    21   ar
    33    20    19   ar
    34    20    18   ar
    35    55    56    1
    36    55    52    1
    37    56    58   ar
    38    19    17   ar
    39    54    53    2
    40    61    62    1
    41    61    60   ar
    42    52    53    1
    43    21    18   ar
    44    76    75   ar
    45    76    74   ar
    46    75    73   ar
    47    18    16   ar
    48    74    72   ar
    49    73    70   ar
    50    58    60   ar
    51    17    16   ar
    52    72    70   ar
    53    72    71   ar
    54    70    68   ar
    55    16    15    1
    56    71    69   ar
    57     9     7   ar
    58     9    10   ar
    59    68    69   ar
    60    68    67    1
    61     4     3    2
    62    11    12    1
    63     3     2    1
    64     7     6   ar
    65    67    64    1
    66    15    12    1
    67    10     8   ar
    68    85    84    1
    69    12    13    1
    70     2     5    1
    71     2     1    1
    72     6     8   ar
    73     6     5    1
    74    64    63    1
    75    64    65    1
    76    93    92   ar
    77    94    92   ar
    78    84    83    1
    79    92    91    1
    80    13    14    2
    81   100    99    1
    82    65    66    2
    83    99    96    1
    84    83    82    1
    85    91    90    1
    86    90    87    1
    87    96    95    1
    88    96    97    1
    89    82    81    1
    90    97    98    2
    91    87    88    1
    92    87    86    1
    93    81    78    1
    94    88    89    2
    95    78    79    1
    96    78    77    1
    97    79    80    2
