@<TRIPOS>MOLECULE
tmp/1h5vA02.pdb
 112 109 0 0 0
SMALL
GASTEIGER

@<TRIPOS>ATOM
      1  N          1.6600   51.5010   16.6510 N.3    32  HIS32      -0.1241
      2  CA         0.9540   50.5960   15.7540 C.3    32  HIS32       0.1621
      3  C          0.1260   51.4830   14.7970 C.2    32  HIS32       0.2264
      4  O          0.3340   52.6930   14.7410 O.2    32  HIS32      -0.2867
      5  CB         0.1740   49.5600   16.5800 C.3    32  HIS32       0.0745
      6  CG        -0.2750   48.3150   15.8840 C.ar   32  HIS32       0.0817
      7  ND1       -1.2300   48.3130   14.8880 N.ar   32  HIS32      -0.2268
      8  CD2        0.0570   47.0400   16.1540 C.ar   32  HIS32       0.1154
      9  CE1       -1.4170   47.0420   14.5650 C.ar   32  HIS32       0.1986
     10  NE2       -0.6710   46.2510   15.3330 N.ar   32  HIS32      -0.2212
     11  N         -1.2120   54.2140    8.6260 N.3    63  TYR63      -0.1241
     12  CA        -1.7180   53.3460    7.5640 C.3    63  TYR63       0.1605
     13  C         -2.5100   54.1630    6.5700 C.2    63  TYR63       0.2264
     14  O         -3.2830   55.0400    6.9460 O.2    63  TYR63      -0.2867
     15  CB        -2.6410   52.2640    8.0980 C.3    63  TYR63       0.0534
     16  CG        -1.9760   51.0030    8.6180 C.ar   63  TYR63      -0.0201
     17  CD1       -1.2260   50.9550    9.7970 C.ar   63  TYR63      -0.0009
     18  CD2       -2.1010   49.8180    7.9160 C.ar   63  TYR63      -0.0009
     19  CE1       -0.7040   49.7630   10.2540 C.ar   63  TYR63       0.0417
     20  CE2       -1.5680   48.6340    8.3580 C.ar   63  TYR63       0.0417
     21  CZ        -0.8530   48.6120    9.5490 C.ar   63  TYR63       0.1957
     22  OH        -0.3780   47.4140   10.0710 O.3    63  TYR63      -0.2866
     23  N          2.1380   54.6780    5.6800 N.3    98  HIS98      -0.1241
     24  CA         2.3280   53.2950    6.0480 C.3    98  HIS98       0.1621
     25  C          1.5530   52.3540    5.1220 C.2    98  HIS98       0.2264
     26  O          0.5090   51.7930    5.4810 O.2    98  HIS98      -0.2867
     27  CB         1.9790   53.0820    7.5100 C.3    98  HIS98       0.0745
     28  CG         2.4700   51.7910    8.0900 C.ar   98  HIS98       0.0817
     29  ND1        3.6950   51.6960    8.7250 N.ar   98  HIS98      -0.2268
     30  CD2        1.8900   50.5780    8.1280 C.ar   98  HIS98       0.1154
     31  CE1        3.7890   50.4670    9.1740 C.ar   98  HIS98       0.1986
     32  NE2        2.7000   49.7620    8.8470 N.ar   98  HIS98      -0.2212
     33  N          0.9750   48.9060    3.1120 N.3   100  LEU100     -0.1245
     34  CA         1.1930   47.5010    3.4480 C.3   100  LEU100      0.1561
     35  C          0.3120   46.6300    2.5280 C.2   100  LEU100      0.2260
     36  O          0.7810   46.0700    1.5310 O.2   100  LEU100     -0.2867
     37  CB         0.9720   47.1980    4.9170 C.3   100  LEU100      0.0270
     38  CG         1.2260   45.7790    5.3270 C.3   100  LEU100      0.0019
     39  CD1        2.6870   45.3390    5.0860 C.3   100  LEU100      0.0001
     40  CD2        0.8610   45.5700    6.7840 C.3   100  LEU100      0.0001
     41  N          6.3290   49.8500    3.3330 N.3   136  GLU136     -0.1245
     42  CA         6.7090   48.5310    2.8710 C.3   136  GLU136      0.1567
     43  C          6.0900   48.1820    1.5050 C.2   136  GLU136      0.2260
     44  O          5.0790   47.4760    1.4320 O.2   136  GLU136     -0.2867
     45  CB         6.3340   47.4590    3.8770 C.3   136  GLU136      0.0388
     46  CG         7.2880   47.4100    5.0560 C.3   136  GLU136      0.1160
     47  CD         7.0160   46.3270    6.0020 C.2   136  GLU136      0.3649
     48  OE1        6.1290   45.5100    5.7190 O.co2 136  GLU136     -0.2457
     49  OE2        7.6940   46.2460    7.0600 O.co2 136  GLU136     -0.2457
     50  N          8.8870   43.9090    1.4000 N.3   175  TRP175     -0.1241
     51  CA         8.6440   44.4370    2.7300 C.3   175  TRP175      0.1605
     52  C          9.8590   45.1710    3.2850 C.2   175  TRP175      0.2264
     53  O         10.2710   44.9910    4.4500 O.2   175  TRP175     -0.2867
     54  CB         8.1430   43.3970    3.7330 C.3   175  TRP175      0.0550
     55  CG         6.8700   42.7120    3.3290 C.ar  175  TRP175      0.0003
     56  CD1        5.6080   43.1400    3.5190 C.ar  175  TRP175      0.0946
     57  CD2        6.7560   41.4200    2.7460 C.ar  175  TRP175      0.0152
     58  NE1        4.6990   42.2230    3.0670 N.ar  175  TRP175     -0.2442
     59  CE2        5.3810   41.1470    2.5880 C.ar  175  TRP175      0.0810
     60  CE3        7.6770   40.4530    2.3600 C.ar  175  TRP175      0.0012
     61  CZ2        4.9100   39.9480    2.0550 C.ar  175  TRP175      0.0191
     62  CZ3        7.2230   39.2700    1.8340 C.ar  175  TRP175      0.0001
     63  CH2        5.8510   39.0210    1.7060 C.ar  175  TRP175      0.0015
     64  N         12.1160   40.8810   11.3210 N.3   199  TYR199     -0.1241
     65  CA        11.5890   40.2220   12.5160 C.3   199  TYR199      0.1605
     66  C         12.6490   39.2770   13.0780 C.2   199  TYR199      0.2264
     67  O         13.1890   38.4340   12.3610 O.2   199  TYR199     -0.2867
     68  CB        10.3320   39.4380   12.2070 C.3   199  TYR199      0.0534
     69  CG         9.1000   40.2990   12.2790 C.ar  199  TYR199     -0.0201
     70  CD1        8.6820   41.0220   11.1910 C.ar  199  TYR199     -0.0009
     71  CD2        8.4110   40.4250   13.4750 C.ar  199  TYR199     -0.0009
     72  CE1        7.5740   41.8430   11.2840 C.ar  199  TYR199      0.0417
     73  CE2        7.2950   41.2480   13.5920 C.ar  199  TYR199      0.0417
     74  CZ         6.9060   41.9670   12.4860 C.ar  199  TYR199      0.1957
     75  OH         5.8200   42.8270   12.5640 O.3   199  TYR199     -0.2866
     76  N         11.4950   49.9290   11.0940 N.3   225  GLU225     -0.1245
     77  CA        10.5540   49.0450   11.7590 C.3   225  GLU225      0.1567
     78  C         11.2230   47.7000   11.9530 C.2   225  GLU225      0.2260
     79  O         11.7490   47.1150   10.9760 O.2   225  GLU225     -0.2867
     80  CB         9.2870   48.8990   10.9070 C.3   225  GLU225      0.0388
     81  CG         8.1610   48.2450   11.6760 C.3   225  GLU225      0.1160
     82  CD         6.8990   48.1540   10.8630 C.2   225  GLU225      0.3649
     83  OE1        6.4520   49.1370   10.3190 O.co2 225  GLU225     -0.2457
     84  OE2        6.2740   47.0470   10.8630 O.co2 225  GLU225     -0.2457
     85  N          7.6270   36.9410   12.2090 N.3   231  ALA231     -0.1245
     86  CA         6.6370   37.6120   11.3680 C.3   231  ALA231      0.1562
     87  C          5.2840   36.9490   11.4800 C.2   231  ALA231      0.2260
     88  O          4.2440   37.6220   11.3770 O.2   231  ALA231     -0.2867
     89  CB         7.1160   37.6580    9.9380 C.3   231  ALA231      0.0290
     90  N          8.6790   47.9770   16.4590 N.3   259  TRP259     -0.1241
     91  CA         7.2500   47.7110   16.2790 C.3   259  TRP259      0.1605
     92  C          6.7600   46.8270   17.4020 C.2   259  TRP259      0.2264
     93  O          7.2240   45.6880   17.4690 O.2   259  TRP259     -0.2867
     94  CB         7.0180   46.9850   14.9250 C.3   259  TRP259      0.0550
     95  CG         5.5920   46.7910   14.5870 C.ar  259  TRP259      0.0003
     96  CD1        4.8540   45.6710   14.8440 C.ar  259  TRP259      0.0946
     97  CD2        4.7160   47.7160   13.9300 C.ar  259  TRP259      0.0152
     98  NE1        3.5580   45.8850   14.4250 N.ar  259  TRP259     -0.2442
     99  CE2        3.4550   47.1200   13.8530 C.ar  259  TRP259      0.0810
    100  CE3        4.8750   49.0030   13.4510 C.ar  259  TRP259      0.0012
    101  CZ2        2.3450   47.7540   13.2710 C.ar  259  TRP259      0.0191
    102  CZ3        3.8020   49.6410   12.8760 C.ar  259  TRP259      0.0001
    103  CH2        2.5450   49.0140   12.8020 C.ar  259  TRP259      0.0015
    104  N         -0.3880   40.5650   20.9700 N.3   266  GLU266     -0.1245
    105  CA         0.4840   39.9400   19.9870 C.3   266  GLU266      0.1567
    106  C          1.9130   40.0980   20.5190 C.2   266  GLU266      0.2260
    107  O          2.2150   41.0570   21.2200 O.2   266  GLU266     -0.2867
    108  CB         0.3140   40.5370   18.5800 C.3   266  GLU266      0.0388
    109  CG         0.7130   41.9760   18.4000 C.3   266  GLU266      0.1160
    110  CD         0.3560   42.5600   17.0630 C.2   266  GLU266      0.3649
    111  OE1       -0.4300   41.9110   16.3110 O.co2 266  GLU266     -0.2457
    112  OE2        0.7630   43.6890   16.7450 O.co2 266  GLU266     -0.2457
@<TRIPOS>BOND
     1    50    51    1
     2    44    43    2
     3    43    42    1
     4    36    35    2
     5    63    62   ar
     6    63    61   ar
     7    62    60   ar
     8    61    59   ar
     9    60    57   ar
    10    35    34    1
    11    59    57   ar
    12    59    58   ar
    13    51    52    1
    14    51    54    1
    15    57    55   ar
    16    42    41    1
    17    42    45    1
    18    58    56   ar
    19    33    34    1
    20    52    53    2
    21    55    56   ar
    22    55    54    1
    23    34    37    1
    24    45    46    1
    25    37    38    1
    26    46    47    1
    27    39    38    1
    28    25    26    2
    29    25    24    1
    30    38    40    1
    31    23    24    1
    32    48    47   ar
    33    47    49   ar
    34    24    27    1
    35    13    14    2
    36    13    12    1
    37    27    28    1
    38    12    15    1
    39    12    11    1
    40    18    20   ar
    41    18    16   ar
    42    28    30   ar
    43    28    29   ar
    44    15    16    1
    45    30    32   ar
    46    20    21   ar
    47    16    17   ar
    48    29    31   ar
    49    32    31   ar
    50    21    22    1
    51    21    19   ar
    52    17    19   ar
    53    89    86    1
    54    83    82   ar
    55    84    82   ar
    56    82    81    1
    57    80    81    1
    58    80    77    1
    59    79    78    2
    60    76    77    1
    61    70    72   ar
    62    70    69   ar
    63    72    74   ar
    64    64    65    1
    65    86    87    1
    66    86    85    1
    67    88    87    2
    68    77    78    1
    69    68    69    1
    70    68    65    1
    71    69    71   ar
    72    67    66    2
    73    74    75    1
    74    74    73   ar
    75    65    66    1
    76   103   102   ar
    77   103   101   ar
    78   102   100   ar
    79   101    99   ar
    80   100    97   ar
    81    71    73   ar
    82    99    97   ar
    83    99    98   ar
    84    97    95   ar
    85    98    96   ar
    86     9     7   ar
    87     9    10   ar
    88    95    96   ar
    89    95    94    1
    90     4     3    2
    91     3     2    1
    92     7     6   ar
    93    94    91    1
    94    10     8   ar
    95     2     5    1
    96     2     1    1
    97     6     8   ar
    98     6     5    1
    99    91    90    1
   100    91    92    1
   101   111   110   ar
   102   112   110   ar
   103   110   109    1
   104    92    93    2
   105   109   108    1
   106   108   105    1
   107   105   106    1
   108   105   104    1
   109   106   107    2
