@<TRIPOS>MOLECULE
tmp/1h5xA00.pdb
 122 114 0 0 0
SMALL
GASTEIGER

@<TRIPOS>ATOM
      1  N         25.4130   40.2290   38.0640 N.3    46  ALA46      -0.1231
      2  CA        26.5520   40.9770   38.5840 C.3    46  ALA46       0.1694
      3  C         26.8680   40.4650   39.9990 C.2    46  ALA46       0.2592
      4  O         26.8020   39.2650   40.2500 O.2    46  ALA46      -0.2718
      5  CB        26.2400   42.4880   38.6060 C.3    46  ALA46       0.0304
      6  N         27.1880   41.3640   40.9230 N.am   47  SER47      -0.1952
      7  CA        27.5430   40.9530   42.2840 C.3    47  SER47       0.1924
      8  C         26.4310   40.2980   43.1060 C.2    47  SER47       0.2314
      9  O         26.7070   39.7590   44.1760 O.2    47  SER47      -0.2863
     10  CB        28.1210   42.1310   43.0890 C.3    47  SER47       0.2116
     11  OG        29.2690   42.7050   42.4740 O.3    47  SER47      -0.2180
     12  N         26.8250   36.7160   44.1690 N.3    50  LYS50      -0.1245
     13  CA        27.6340   36.3180   45.3150 C.3    50  LYS50       0.1561
     14  C         26.8020   35.5560   46.3370 C.2    50  LYS50       0.2260
     15  O         27.3500   34.8000   47.1410 O.2    50  LYS50      -0.2867
     16  CB        28.2590   37.5320   45.9990 C.3    50  LYS50       0.0271
     17  CG        29.4140   38.1380   45.2480 C.3    50  LYS50       0.0035
     18  CD        29.9950   39.2840   46.0430 C.3    50  LYS50       0.0206
     19  CE        31.2630   39.8120   45.4040 C.3    50  LYS50       0.1093
     20  NZ        31.7340   41.0050   46.1460 N.3    50  LYS50      -0.1314
     21  N         30.4850   42.2550   50.7460 N.3    84  GLN84      -0.1231
     22  CA        30.2090   43.6830   50.6290 C.3    84  GLN84       0.1698
     23  C         31.0730   44.5040   49.6740 C.2    84  GLN84       0.2592
     24  O         30.6170   45.5190   49.1590 O.2    84  GLN84      -0.2718
     25  CB        30.2410   44.3280   52.0160 C.3    84  GLN84       0.0381
     26  CG        29.1920   43.7680   52.9620 C.3    84  GLN84       0.0905
     27  CD        29.1630   44.4850   54.2900 C.2    84  GLN84       0.2608
     28  OE1       30.1900   44.6200   54.9570 O.2    84  GLN84      -0.2717
     29  NE2       27.9850   44.9450   54.6880 N.am   84  GLN84      -0.0878
     30  N         32.3160   44.0950   49.4480 N.am   85  VAL85      -0.1966
     31  CA        33.1770   44.8390   48.5310 C.3    85  VAL85       0.1727
     32  C         33.2550   44.1180   47.1910 C.2    85  VAL85       0.2616
     33  O         32.5970   43.0990   47.0000 O.2    85  VAL85      -0.2715
     34  CB        34.5980   45.0050   49.0980 C.3    85  VAL85       0.0290
     35  CG1       34.5570   45.8650   50.3500 C.3    85  VAL85       0.0023
     36  CG2       35.2020   43.6440   49.3910 C.3    85  VAL85       0.0023
     37  N         34.0530   44.6420   46.2640 N.am   86  SER86      -0.1950
     38  CA        34.1840   44.0220   44.9470 C.3    86  SER86       0.1924
     39  C         34.7060   42.5920   45.0740 C.2    86  SER86       0.2314
     40  O         34.0210   41.6330   44.7020 O.2    86  SER86      -0.2863
     41  CB        35.1310   44.8410   44.0680 C.3    86  SER86       0.2116
     42  OG        34.7000   46.1890   43.9830 O.3    86  SER86      -0.2180
     43  N         36.0480   40.6530   43.4850 N.3    88  VAL88      -0.1245
     44  CA        35.7040   39.7740   42.3740 C.3    88  VAL88       0.1561
     45  C         36.6170   38.5540   42.2410 C.2    88  VAL88       0.2260
     46  O         36.1370   37.4480   41.9910 O.2    88  VAL88      -0.2867
     47  CB        35.6480   40.5530   41.0230 C.3    88  VAL88       0.0252
     48  CG1       36.9500   41.2940   40.7750 C.3    88  VAL88       0.0019
     49  CG2       35.3550   39.5890   39.8810 C.3    88  VAL88       0.0019
     50  N         29.2950   37.9230   35.5570 N.3   126  LEU126     -0.1245
     51  CA        29.7350   39.3050   35.4630 C.3   126  LEU126      0.1561
     52  C         29.7450   39.8170   34.0240 C.2   126  LEU126      0.2260
     53  O         29.6540   41.0200   33.7870 O.2   126  LEU126     -0.2867
     54  CB        31.1260   39.4350   36.0880 C.3   126  LEU126      0.0270
     55  CG        31.5320   40.7930   36.6680 C.3   126  LEU126      0.0019
     56  CD1       30.4510   41.3160   37.6180 C.3   126  LEU126      0.0001
     57  CD2       32.8620   40.6380   37.4030 C.3   126  LEU126      0.0001
     58  N         21.9080   42.8880   49.2370 N.3   176  LYS176     -0.1231
     59  CA        23.0790   42.7090   48.4010 C.3   176  LYS176      0.1693
     60  C         23.0050   43.6500   47.1920 C.2   176  LYS176      0.2593
     61  O         21.9950   43.6980   46.4870 O.2   176  LYS176     -0.2718
     62  CB        23.1520   41.2540   47.9260 C.3   176  LYS176      0.0285
     63  CG        24.3920   40.9340   47.1000 C.3   176  LYS176      0.0035
     64  CD        25.6360   40.8520   47.9840 C.3   176  LYS176      0.0206
     65  CE        26.8950   41.1880   47.2040 C.3   176  LYS176      0.1093
     66  NZ        26.9690   42.6440   46.8470 N.3   176  LYS176     -0.1314
     67  N         24.0700   44.4050   46.9620 N.am  177  THR177     -0.1939
     68  CA        24.1080   45.3150   45.8230 C.3   177  THR177      0.2028
     69  C         24.7000   44.6090   44.6080 C.2   177  THR177      0.2643
     70  O         25.3010   43.5380   44.7310 O.2   177  THR177     -0.2714
     71  CB        24.9730   46.5450   46.1180 C.3   177  THR177      0.1808
     72  OG1       26.3010   46.1180   46.4430 O.3   177  THR177     -0.2208
     73  CG2       24.3940   47.3360   47.2750 C.3   177  THR177      0.0379
     74  N         24.5280   45.2230   43.4400 N.am  178  GLY178     -0.1939
     75  CA        25.0580   44.6700   42.2070 C.3   178  GLY178      0.2014
     76  C         25.2910   45.7920   41.2070 C.2   178  GLY178      0.2639
     77  O         24.5600   46.7790   41.2090 O.2   178  GLY178     -0.2714
     78  N         26.3040   45.6460   40.3550 N.am  179  PHE179     -0.1959
     79  CA        26.6280   46.6730   39.3610 C.3   179  PHE179      0.1771
     80  C         27.4760   46.0690   38.2450 C.2   179  PHE179      0.2620
     81  O         28.6380   45.7450   38.4480 O.2   179  PHE179     -0.2715
     82  CB        27.3770   47.8260   40.0400 C.3   179  PHE179      0.0574
     83  CG        27.8260   48.9110   39.0930 C.ar  179  PHE179     -0.0200
     84  CD1       26.9430   49.4620   38.1670 C.ar  179  PHE179     -0.0042
     85  CD2       29.1280   49.4060   39.1510 C.ar  179  PHE179     -0.0042
     86  CE1       27.3470   50.4900   37.3130 C.ar  179  PHE179     -0.0003
     87  CE2       29.5420   50.4360   38.3000 C.ar  179  PHE179     -0.0003
     88  CZ        28.6470   50.9780   37.3800 C.ar  179  PHE179     -0.0000
     89  N         26.8860   45.9270   37.0650 N.am  180  SER180     -0.1950
     90  CA        27.5760   45.3310   35.9270 C.3   180  SER180      0.1924
     91  C         28.5740   46.2650   35.2470 C.2   180  SER180      0.2314
     92  O         29.4610   45.8090   34.5300 O.2   180  SER180     -0.2863
     93  CB        26.5560   44.8700   34.8870 C.3   180  SER180      0.2116
     94  OG        26.0030   45.9910   34.2160 O.3   180  SER180     -0.2180
     95  N         28.3830   55.8920   36.7700 N.3   215  GLU215     -0.1245
     96  CA        28.4760   55.5500   38.1830 C.3   215  GLU215      0.1567
     97  C         27.8820   56.6120   39.0960 C.2   215  GLU215      0.2260
     98  O         27.6070   56.3430   40.2650 O.2   215  GLU215     -0.2867
     99  CB        29.9300   55.2870   38.5740 C.3   215  GLU215      0.0388
    100  CG        30.4500   53.9430   38.1100 C.3   215  GLU215      0.1160
    101  CD        31.8460   53.6560   38.6200 C.2   215  GLU215      0.3649
    102  OE1       32.4620   54.5670   39.2110 O.co2 215  GLU215     -0.2457
    103  OE2       32.3280   52.5200   38.4270 O.co2 215  GLU215     -0.2457
    104  N         24.7750   55.4230   40.7900 N.3   218  LEU218     -0.1245
    105  CA        24.7960   54.2600   41.6770 C.3   218  LEU218      0.1561
    106  C         23.9960   54.4030   42.9710 C.2   218  LEU218      0.2260
    107  O         23.2290   53.5150   43.3250 O.2   218  LEU218     -0.2867
    108  CB        26.2320   53.8670   42.0320 C.3   218  LEU218      0.0270
    109  CG        26.8340   52.6770   41.2750 C.3   218  LEU218      0.0019
    110  CD1       28.1480   52.2840   41.9420 C.3   218  LEU218      0.0001
    111  CD2       25.8670   51.4960   41.2760 C.3   218  LEU218      0.0001
    112  N         20.3170   53.0160   43.3720 N.3   221  ARG221     -0.1245
    113  CA        19.8560   51.6370   43.5190 C.3   221  ARG221      0.1563
    114  C         19.4610   51.3110   44.9510 C.2   221  ARG221      0.2260
    115  O         18.7890   50.3140   45.1950 O.2   221  ARG221     -0.2867
    116  CB        20.8890   50.6260   42.9860 C.3   221  ARG221      0.0307
    117  CG        22.3230   50.8120   43.4360 C.3   221  ARG221      0.0489
    118  CD        22.6510   50.0280   44.6780 C.3   221  ARG221      0.2205
    119  NE        24.0340   50.2590   45.0940 N.pl3 221  ARG221     -0.0865
    120  CZ        25.1060   49.7800   44.4750 C.cat 221  ARG221      0.5346
    121  NH1       24.9670   49.0070   43.4120 N.pl3 221  ARG221      0.1354
    122  NH2       26.3180   50.0580   44.9380 N.pl3 221  ARG221      0.1354
@<TRIPOS>BOND
     1    53    52    2
     2    52    51    1
     3    94    93    1
     4    92    91    2
     5    93    90    1
     6    91    90    1
     7    51    50    1
     8    51    54    1
     9    90    89    1
    10    54    55    1
    11    55    57    1
    12    55    56    1
    13    95    96    1
    14    89    80   am
    15    86    88   ar
    16    86    84   ar
    17    88    87   ar
    18     1     2    1
    19   100    99    1
    20   100   101    1
    21    84    83   ar
    22    96    99    1
    23    96    97    1
    24    80    81    2
    25    80    79    1
    26    87    85   ar
    27   103   101   ar
    28     2     5    1
    29     2     3    1
    30   101   102   ar
    31    83    85   ar
    32    83    82    1
    33    97    98    2
    34    79    82    1
    35    79    78    1
    36    49    47    1
    37     3     4    2
    38     3     6   am
    39    78    76   am
    40    48    47    1
    41   104   105    1
    42     6     7    1
    43    47    44    1
    44    76    77    2
    45    76    75    1
    46   109   111    1
    47   109   110    1
    48   109   108    1
    49   105   108    1
    50   105   106    1
    51    46    45    2
    52    75    74    1
    53    45    44    1
    54     7    10    1
    55     7     8    1
    56    44    43    1
    57    11    10    1
    58   106   107    2
    59   116   117    1
    60   116   113    1
    61     8     9    2
    62   112   113    1
    63   121   120    1
    64   117   118    1
    65    74    69   am
    66   113   114    1
    67    42    41    1
    68    41    38    1
    69    12    13    1
    70   120   122    1
    71   120   119    2
    72    69    70    2
    73    69    68    1
    74   118   119    1
    75    40    39    2
    76    38    39    1
    77    38    37    1
    78   114   115    2
    79    17    16    1
    80    17    18    1
    81    13    16    1
    82    13    14    1
    83    19    18    1
    84    19    20    1
    85    68    71    1
    86    68    67    1
    87    71    72    1
    88    71    73    1
    89    37    32   am
    90    14    15    2
    91    61    60    2
    92    66    65    1
    93    67    60   am
    94    33    32    2
    95    63    62    1
    96    63    64    1
    97    32    31    1
    98    60    59    1
    99    65    64    1
   100    62    59    1
   101    59    58    1
   102    31    34    1
   103    31    30    1
   104    34    36    1
   105    34    35    1
   106    24    23    2
   107    30    23   am
   108    23    22    1
   109    22    21    1
   110    22    25    1
   111    25    26    1
   112    26    27    1
   113    27    29   am
   114    27    28    2
