@<TRIPOS>MOLECULE
tmp/1h60A01.pdb
 169 161 0 0 0
SMALL
GASTEIGER

@<TRIPOS>ATOM
      1  N         25.3920    5.6040   20.1680 N.3    26  THR26      -0.1218
      2  CA        25.2950    5.5250   18.7180 C.3    26  THR26       0.1862
      3  C         26.6000    5.9790   18.0740 C.2    26  THR26       0.2287
      4  O         27.0300    7.1040   18.3500 O.2    26  THR26      -0.2866
      5  CB        24.1270    6.4370   18.2880 C.3    26  THR26       0.1770
      6  OG1       22.9000    5.8120   18.6770 O.3    26  THR26      -0.2211
      7  CG2       24.1170    6.6470   16.7830 C.3    26  THR26       0.0375
      8  N         27.2670    4.9530   14.5510 N.3    28  LEU28      -0.1245
      9  CA        26.9300    4.9200   13.1230 C.3    28  LEU28       0.1561
     10  C         28.0250    4.3860   12.2150 C.2    28  LEU28       0.2260
     11  O         28.3570    4.9560   11.1690 O.2    28  LEU28      -0.2867
     12  CB        26.4840    6.3350   12.6720 C.3    28  LEU28       0.0270
     13  CG        25.3510    6.9050   13.5220 C.3    28  LEU28       0.0019
     14  CD1       24.8980    8.2660   13.0090 C.3    28  LEU28       0.0001
     15  CD2       24.1380    5.9710   13.5470 C.3    28  LEU28       0.0001
     16  N         22.2470    2.1450   20.4220 N.3    58  ALA58      -0.1245
     17  CA        20.8560    1.8460   20.0810 C.3    58  ALA58       0.1562
     18  C         20.7910    0.9880   18.8070 C.2    58  ALA58       0.2260
     19  O         21.4850    1.2480   17.8180 O.2    58  ALA58      -0.2867
     20  CB        20.0630    3.1290   19.9770 C.3    58  ALA58       0.0290
     21  N         18.7310    6.2780   11.4160 N.3    68  TYR68      -0.1241
     22  CA        20.0780    6.7710   11.1760 C.3    68  TYR68       0.1605
     23  C         20.8430    5.8200   10.2630 C.2    68  TYR68       0.2264
     24  O         20.8240    4.6030   10.4860 O.2    68  TYR68      -0.2867
     25  CB        20.9240    6.9000   12.4680 C.3    68  TYR68       0.0534
     26  CG        20.2980    7.8540   13.4600 C.ar   68  TYR68      -0.0201
     27  CD1       19.2290    7.4450   14.2510 C.ar   68  TYR68      -0.0009
     28  CD2       20.7730    9.1590   13.5820 C.ar   68  TYR68      -0.0009
     29  CE1       18.6350    8.3020   15.1660 C.ar   68  TYR68       0.0417
     30  CE2       20.1850   10.0230   14.4830 C.ar   68  TYR68       0.0417
     31  CZ        19.1320    9.5930   15.2610 C.ar   68  TYR68       0.1957
     32  OH        18.5480   10.4510   16.1540 O.3    68  TYR68      -0.2866
     33  N         20.7770   -2.1310   23.6420 N.3   100  GLN100     -0.1245
     34  CA        19.7160   -1.1360   23.7010 C.3   100  GLN100      0.1566
     35  C         18.8900   -1.2290   22.4030 C.2   100  GLN100      0.2260
     36  O         19.4670   -1.1120   21.3300 O.2   100  GLN100     -0.2867
     37  CB        20.2100    0.3070   23.8680 C.3   100  GLN100      0.0367
     38  CG        19.0140    1.2540   24.1110 C.3   100  GLN100      0.0905
     39  CD        19.4170    2.7180   24.0800 C.2   100  GLN100      0.2608
     40  OE1       19.9750    3.2230   23.1000 O.2   100  GLN100     -0.2717
     41  NE2       19.1090    3.4670   25.1360 N.am  100  GLN100     -0.0878
     42  N         15.7580    0.1130   19.9710 N.3   102  TRP102     -0.1241
     43  CA        14.8940    1.2680   19.7010 C.3   102  TRP102      0.1605
     44  C         14.0230    1.0280   18.4620 C.2   102  TRP102      0.2264
     45  O         14.3000    0.2020   17.5930 O.2   102  TRP102     -0.2867
     46  CB        15.6280    2.5920   19.4950 C.3   102  TRP102      0.0550
     47  CG        16.6360    2.7150   18.3770 C.ar  102  TRP102      0.0003
     48  CD1       17.0000    1.8340   17.3890 C.ar  102  TRP102      0.0946
     49  CD2       17.4520    3.8880   18.1560 C.ar  102  TRP102      0.0152
     50  NE1       17.9740    2.3830   16.5910 N.ar  102  TRP102     -0.2442
     51  CE2       18.2660    3.6380   17.0450 C.ar  102  TRP102      0.0810
     52  CE3       17.5550    5.1150   18.8230 C.ar  102  TRP102      0.0012
     53  CZ2       19.1900    4.5410   16.5340 C.ar  102  TRP102      0.0191
     54  CZ3       18.4700    6.0370   18.3340 C.ar  102  TRP102      0.0001
     55  CH2       19.2700    5.7450   17.2090 C.ar  102  TRP102      0.0015
     56  N         13.8000   18.0640   13.6960 N.3   129  THR129     -0.1203
     57  CA        15.2050   17.9520   14.1080 C.3   129  THR129      0.1994
     58  C         15.9940   17.3430   12.9460 C.2   129  THR129      0.2618
     59  O         15.4810   17.2940   11.8290 O.2   129  THR129     -0.2717
     60  CB        15.3330   17.1780   15.4170 C.3   129  THR129      0.1784
     61  OG1       16.6640   17.3090   15.9820 O.3   129  THR129     -0.2211
     62  CG2       15.0980   15.6870   15.2040 C.3   129  THR129      0.0376
     63  N         17.2200   16.9410   13.2210 N.am  130  ARG130     -0.1965
     64  CA        18.0720   16.3830   12.1800 C.3   130  ARG130      0.1729
     65  C         18.4100   14.9390   12.5430 C.2   130  ARG130      0.2617
     66  O         18.6000   14.6610   13.7170 O.2   130  ARG130     -0.2715
     67  CB        19.4230   17.0730   12.0100 C.3   130  ARG130      0.0348
     68  CG        19.4670   18.0150   10.8130 C.3   130  ARG130      0.0492
     69  CD        18.3370   19.0080   10.9820 C.3   130  ARG130      0.2205
     70  NE        18.3530   19.6110   12.3340 N.pl3 130  ARG130     -0.0865
     71  CZ        17.4450   20.5700   12.5590 C.cat 130  ARG130      0.5346
     72  NH1       17.3410   21.1970   13.7140 N.pl3 130  ARG130      0.1354
     73  NH2       16.6420   20.8600   11.5400 N.pl3 130  ARG130      0.1354
     74  N         18.4640   14.1190   11.4940 N.am  131  THR131     -0.1937
     75  CA        18.9960   12.7780   11.7150 C.3   131  THR131      0.2028
     76  C         20.3140   12.7010   10.9640 C.2   131  THR131      0.2642
     77  O         20.7440   13.7420   10.4500 O.2   131  THR131     -0.2714
     78  CB        18.0090   11.6770   11.2930 C.3   131  THR131      0.1808
     79  OG1       18.6400   10.4410   11.6410 O.3   131  THR131     -0.2208
     80  CG2       17.6730   11.6710    9.7970 C.3   131  THR131      0.0379
     81  N         20.9360   11.5260   10.9060 N.am  132  SER132     -0.1949
     82  CA        22.1850   11.3820   10.1770 C.3   132  SER132      0.1924
     83  C         22.0670   10.3400    9.0710 C.2   132  SER132      0.2314
     84  O         21.7670    9.1770    9.3820 O.2   132  SER132     -0.2863
     85  CB        23.3130   10.9910   11.1390 C.3   132  SER132      0.2116
     86  OG        24.5230   10.8920   10.4040 O.3   132  SER132     -0.2180
     87  N         24.2070   15.4600    8.1550 N.3   142  ARG142     -0.1245
     88  CA        22.9400   15.7880    8.8030 C.3   142  ARG142      0.1563
     89  C         21.8410   16.0020    7.7620 C.2   142  ARG142      0.2260
     90  O         22.0640   16.5650    6.6840 O.2   142  ARG142     -0.2867
     91  CB        23.0960   17.0320    9.6700 C.3   142  ARG142      0.0307
     92  CG        23.4360   16.7640   11.1210 C.3   142  ARG142      0.0489
     93  CD        24.9260   16.7340   11.3900 C.3   142  ARG142      0.2205
     94  NE        25.5390   18.0320   11.0920 N.pl3 142  ARG142     -0.0865
     95  CZ        26.8510   18.2220   11.0300 C.cat 142  ARG142      0.5346
     96  NH1       27.6580   17.1980   11.2540 N.pl3 142  ARG142      0.1354
     97  NH2       27.3380   19.4200   10.7530 N.pl3 142  ARG142      0.1354
     98  N         14.6130    1.3100   24.6460 N.3   181  HIS181     -0.1241
     99  CA        14.8840    2.7540   24.5230 C.3   181  HIS181      0.1621
    100  C         13.5920    3.5360   24.5920 C.2   181  HIS181      0.2264
    101  O         12.9220    3.7620   23.5820 O.2   181  HIS181     -0.2867
    102  CB        15.5810    3.0630   23.2130 C.3   181  HIS181      0.0745
    103  CG        16.2590    4.3990   23.1740 C.ar  181  HIS181      0.0817
    104  ND1       15.8590    5.4380   24.0010 N.ar  181  HIS181     -0.2268
    105  CD2       17.2730    4.8590   22.4100 C.ar  181  HIS181      0.1154
    106  CE1       16.6150    6.4940   23.7590 C.ar  181  HIS181      0.1986
    107  NE2       17.4730    6.1720   22.7960 N.ar  181  HIS181     -0.2212
    108  N         14.4700   10.0580   24.9710 N.3   184  HIS184     -0.1241
    109  CA        15.0960   10.9080   23.9720 C.3   184  HIS184      0.1621
    110  C         14.3030   11.1290   22.6930 C.2   184  HIS184      0.2264
    111  O         14.8630   11.3900   21.6280 O.2   184  HIS184     -0.2867
    112  CB        16.4710   10.3200   23.6050 C.3   184  HIS184      0.0745
    113  CG        17.3850   10.1980   24.7840 C.ar  184  HIS184      0.0817
    114  ND1       18.5520    9.4560   24.7450 N.ar  184  HIS184     -0.2268
    115  CD2       17.3230   10.7310   26.0230 C.ar  184  HIS184      0.1154
    116  CE1       19.1780    9.5370   25.9260 C.ar  184  HIS184      0.1986
    117  NE2       18.4330   10.3060   26.7260 N.ar  184  HIS184     -0.2212
    118  N         12.3920    9.1330   20.8130 N.3   186  TYR186     -0.1241
    119  CA        12.1760    8.0450   19.8250 C.3   186  TYR186      0.1605
    120  C         10.7730    7.4990   20.0070 C.2   186  TYR186      0.2264
    121  O          9.9730    8.1170   20.7030 O.2   186  TYR186     -0.2867
    122  CB        13.3030    7.0000   19.9540 C.3   186  TYR186      0.0534
    123  CG        14.6080    7.7420   19.6300 C.ar  186  TYR186     -0.0201
    124  CD1       14.8110    8.2350   18.3470 C.ar  186  TYR186     -0.0009
    125  CD2       15.5970    7.9530   20.5770 C.ar  186  TYR186     -0.0009
    126  CE1       15.9730    8.9170   17.9990 C.ar  186  TYR186      0.0417
    127  CE2       16.7610    8.6410   20.2250 C.ar  186  TYR186      0.0417
    128  CZ        16.9490    9.1170   18.9540 C.ar  186  TYR186      0.1957
    129  OH        18.0870    9.8050   18.5800 O.3   186  TYR186     -0.2866
    130  N         15.2410    2.4460   29.4990 N.3   233  ARG233     -0.1245
    131  CA        15.7970    3.7830   29.6660 C.3   233  ARG233      0.1563
    132  C         14.6770    4.7990   29.4400 C.2   233  ARG233      0.2260
    133  O         13.9670    4.7580   28.4260 O.2   233  ARG233     -0.2867
    134  CB        16.9550    4.0740   28.7060 C.3   233  ARG233      0.0307
    135  CG        17.7410    5.3080   29.1910 C.3   233  ARG233      0.0489
    136  CD        18.9250    5.6050   28.2650 C.3   233  ARG233      0.2205
    137  NE        20.0300    6.1400   29.0650 N.pl3 233  ARG233     -0.0865
    138  CZ        21.0510    6.8170   28.5930 C.cat 233  ARG233      0.5346
    139  NH1       21.1950    7.1420   27.3080 N.pl3 233  ARG233      0.1354
    140  NH2       21.9660    7.1880   29.4820 N.pl3 233  ARG233      0.1354
    141  N         15.5210   16.4980   22.3670 N.3   241  GLN241     -0.1245
    142  CA        15.3250   16.6480   20.9290 C.3   241  GLN241      0.1566
    143  C         13.9060   17.1450   20.6050 C.2   241  GLN241      0.2260
    144  O         13.1650   16.4990   19.8760 O.2   241  GLN241     -0.2867
    145  CB        15.5750   15.3120   20.2110 C.3   241  GLN241      0.0367
    146  CG        16.7920   14.5470   20.7280 C.3   241  GLN241      0.0905
    147  CD        17.2690   13.5320   19.7040 C.2   241  GLN241      0.2608
    148  OE1       17.9040   13.9000   18.7100 O.2   241  GLN241     -0.2717
    149  NE2       16.9810   12.2610   19.9100 N.am  241  GLN241     -0.0878
    150  N         21.7520   16.4920   25.5760 N.3   275  LEU275     -0.1245
    151  CA        23.1480   16.9350   25.4390 C.3   275  LEU275      0.1561
    152  C         23.2100   18.4470   25.6350 C.2   275  LEU275      0.2260
    153  O         24.2030   18.9760   26.1350 O.2   275  LEU275     -0.2867
    154  CB        23.6990   16.5260   24.0750 C.3   275  LEU275      0.0270
    155  CG        24.1280   15.0580   23.9510 C.3   275  LEU275      0.0019
    156  CD1       24.6320   14.7580   22.5450 C.3   275  LEU275      0.0001
    157  CD2       25.1850   14.7590   25.0030 C.3   275  LEU275      0.0001
    158  N         30.4850   10.1840   15.2550 N.3   351  TYR351     -0.1241
    159  CA        29.5340    9.5640   14.3210 C.3   351  TYR351      0.1605
    160  C         30.1400    9.2540   12.9600 C.2   351  TYR351      0.2264
    161  O         30.7070   10.1390   12.2980 O.2   351  TYR351     -0.2867
    162  CB        28.2880   10.4550   14.0710 C.3   351  TYR351      0.0534
    163  CG        27.6640   10.8720   15.3720 C.ar  351  TYR351     -0.0201
    164  CD1       26.9140   10.0040   16.1500 C.ar  351  TYR351     -0.0009
    165  CD2       27.8480   12.1660   15.8440 C.ar  351  TYR351     -0.0009
    166  CE1       26.3500   10.3890   17.3460 C.ar  351  TYR351      0.0417
    167  CE2       27.2810   12.5620   17.0490 C.ar  351  TYR351      0.0417
    168  CZ        26.5360   11.6870   17.7950 C.ar  351  TYR351      0.1957
    169  OH        25.9880   12.0760   18.9880 O.3   351  TYR351     -0.2866
@<TRIPOS>BOND
     1    90    89    2
     2    89    88    1
     3    87    88    1
     4    88    91    1
     5    83    84    2
     6    83    82    1
     7    91    92    1
     8    80    78    1
     9    82    81    1
    10    82    85    1
    11    23    24    2
    12    23    22    1
    13    86    85    1
    14    77    76    2
    15    97    95    1
    16    68    69    1
    17    68    67    1
    18    81    76   am
    19    76    75    1
    20    69    70    1
    21    95    94    2
    22    95    96    1
    23    94    93    1
    24    92    93    1
    25    11    10    2
    26    22    21    1
    27    22    25    1
    28    78    79    1
    29    78    75    1
    30    74    75    1
    31    74    65   am
    32    73    71    1
    33    59    58    2
    34    67    64    1
    35    64    65    1
    36    64    63    1
    37    10     9    1
    38   161   160    2
    39    70    71    2
    40    25    26    1
    41    65    66    2
    42    71    72    1
    43    12     9    1
    44    12    13    1
    45    58    63   am
    46    58    57    1
    47   160   159    1
    48    14    13    1
    49     9     8    1
    50    26    28   ar
    51    26    27   ar
    52    13    15    1
    53    28    30   ar
    54    56    57    1
    55   162   159    1
    56   162   163    1
    57    57    60    1
    58    27    29   ar
    59   159   158    1
    60    30    31   ar
    61    29    31   ar
    62    62    60    1
    63    31    32    1
    64   163   165   ar
    65   163   164   ar
    66    60    61    1
    67   165   167   ar
    68   164   166   ar
    69    53    51   ar
    70    53    55   ar
    71    50    51   ar
    72    50    48   ar
    73     7     5    1
    74    51    49   ar
    75   167   168   ar
    76    55    54   ar
    77   166   168   ar
    78    48    47   ar
    79    45    44    2
    80   168   169    1
    81    19    18    2
    82   126   124   ar
    83   126   128   ar
    84     3     4    2
    85     3     2    1
    86    49    47   ar
    87    49    52   ar
    88     5     6    1
    89     5     2    1
    90    54    52   ar
    91   124   123   ar
    92    47    46    1
    93    44    43    1
    94   129   128    1
    95   148   147    2
    96     2     1    1
    97    18    17    1
    98   128   127   ar
    99    46    43    1
   100   123   122    1
   101   123   125   ar
   102    43    42    1
   103   147   149   am
   104   147   146    1
   105   119   122    1
   106   119   120    1
   107   119   118    1
   108   144   143    2
   109    20    17    1
   110   120   121    2
   111    17    16    1
   112   145   146    1
   113   145   142    1
   114   127   125   ar
   115   143   142    1
   116   142   141    1
   117    36    35    2
   118   111   110    2
   119    35    34    1
   120   105   107   ar
   121   105   103   ar
   122   156   155    1
   123   110   109    1
   124   107   106   ar
   125    40    39    2
   126   103   102    1
   127   103   104   ar
   128   102    99    1
   129   101   100    2
   130   112   109    1
   131   112   113    1
   132    33    34    1
   133    34    37    1
   134   106   104   ar
   135    37    38    1
   136   155   154    1
   137   155   157    1
   138   109   108    1
   139   154   151    1
   140    39    38    1
   141    39    41   am
   142    99   100    1
   143    99    98    1
   144   114   113   ar
   145   114   116   ar
   146   113   115   ar
   147   151   150    1
   148   151   152    1
   149   152   153    2
   150   116   117   ar
   151   115   117   ar
   152   139   138    1
   153   136   137    1
   154   136   135    1
   155   133   132    2
   156   138   137    2
   157   138   140    1
   158   134   135    1
   159   134   131    1
   160   132   131    1
   161   130   131    1
