@<TRIPOS>MOLECULE
tmp/1h61A01.pdb
 144 139 0 0 0
SMALL
GASTEIGER

@<TRIPOS>ATOM
      1  N         25.4150    5.7900   19.9980 N.3    26  THR26      -0.1218
      2  CA        25.2630    5.6040   18.5610 C.3    26  THR26       0.1862
      3  C         26.5510    6.1000   17.8940 C.2    26  THR26       0.2287
      4  O         26.9630    7.2430   18.1180 O.2    26  THR26      -0.2866
      5  CB        24.0580    6.4240   18.0540 C.3    26  THR26       0.1770
      6  OG1       22.8440    5.7860   18.4650 O.3    26  THR26      -0.2211
      7  CG2       24.0800    6.5620   16.5450 C.3    26  THR26       0.0375
      8  N         18.6790    6.0710   11.2220 N.3    68  TYR68      -0.1241
      9  CA        20.0170    6.5830   10.9140 C.3    68  TYR68       0.1605
     10  C         20.8120    5.5970   10.0680 C.2    68  TYR68       0.2264
     11  O         20.8110    4.3980   10.3410 O.2    68  TYR68      -0.2867
     12  CB        20.8380    6.8230   12.1870 C.3    68  TYR68       0.0534
     13  CG        20.2370    7.7750   13.1870 C.ar   68  TYR68      -0.0201
     14  CD1       19.1720    7.3850   13.9960 C.ar   68  TYR68      -0.0009
     15  CD2       20.7360    9.0700   13.3300 C.ar   68  TYR68      -0.0009
     16  CE1       18.6170    8.2600   14.9250 C.ar   68  TYR68       0.0417
     17  CE2       20.1860    9.9510   14.2540 C.ar   68  TYR68       0.0417
     18  CZ        19.1280    9.5390   15.0460 C.ar   68  TYR68       0.1957
     19  OH        18.5760   10.4050   15.9580 O.3    68  TYR68      -0.2866
     20  N         15.7260    0.0640   19.9920 N.3   102  TRP102     -0.1241
     21  CA        14.8550    1.1850   19.6720 C.3   102  TRP102      0.1605
     22  C         14.0950    1.0570   18.3710 C.2   102  TRP102      0.2264
     23  O         14.3330    0.1620   17.5530 O.2   102  TRP102     -0.2867
     24  CB        15.6530    2.5040   19.6100 C.3   102  TRP102      0.0550
     25  CG        16.6060    2.6670   18.4170 C.ar  102  TRP102      0.0003
     26  CD1       16.9560    1.7160   17.4940 C.ar  102  TRP102      0.0946
     27  CD2       17.4090    3.8180   18.1210 C.ar  102  TRP102      0.0152
     28  NE1       17.9330    2.2020   16.6540 N.ar  102  TRP102     -0.2442
     29  CE2       18.2300    3.4890   17.0180 C.ar  102  TRP102      0.0810
     30  CE3       17.5200    5.0960   18.6880 C.ar  102  TRP102      0.0012
     31  CZ2       19.1540    4.3910   16.4760 C.ar  102  TRP102      0.0191
     32  CZ3       18.4380    5.9900   18.1500 C.ar  102  TRP102      0.0001
     33  CH2       19.2420    5.6320   17.0550 C.ar  102  TRP102      0.0015
     34  N         11.9130   10.1720   13.9060 N.3   107  ILE107     -0.1245
     35  CA        13.2730   10.6650   13.7000 C.3   107  ILE107      0.1561
     36  C         13.8720    9.6750   12.7100 C.2   107  ILE107      0.2260
     37  O         14.6150    8.7620   13.0760 O.2   107  ILE107     -0.2867
     38  CB        14.0980   10.6740   14.9980 C.3   107  ILE107      0.0252
     39  CG1       13.4250   11.5730   16.0360 C.3   107  ILE107      0.0019
     40  CG2       15.5130   11.1820   14.7070 C.3   107  ILE107      0.0019
     41  CD1       13.5020   13.0460   15.7300 C.3   107  ILE107      0.0001
     42  N         13.8830   18.0380   13.0530 N.3   129  THR129     -0.1203
     43  CA        15.3020   17.9450   13.3550 C.3   129  THR129      0.1994
     44  C         15.9750   17.2640   12.1660 C.2   129  THR129      0.2618
     45  O         15.3200   16.9830   11.1640 O.2   129  THR129     -0.2717
     46  CB        15.5650   17.1400   14.6480 C.3   129  THR129      0.1784
     47  OG1       16.9310   17.3200   15.0470 O.3   129  THR129     -0.2211
     48  CG2       15.2920   15.6580   14.4300 C.3   129  THR129      0.0376
     49  N         17.2750   17.0110   12.2600 N.am  130  ARG130     -0.1965
     50  CA        17.9900   16.3680   11.1620 C.3   130  ARG130      0.1729
     51  C         18.6560   15.0760   11.5960 C.2   130  ARG130      0.2617
     52  O         19.4710   15.0720   12.5140 O.2   130  ARG130     -0.2715
     53  CB        19.0660   17.2980   10.5940 C.3   130  ARG130      0.0348
     54  CG        18.5530   18.6180   10.0550 C.3   130  ARG130      0.0492
     55  CD        19.6680   19.3810    9.3510 C.3   130  ARG130      0.2205
     56  NE        19.5780   19.2790    7.8960 N.pl3 130  ARG130     -0.0865
     57  CZ        20.5710   19.5720    7.0610 C.cat 130  ARG130      0.5346
     58  NH1       21.7400   19.9810    7.5340 N.pl3 130  ARG130      0.1354
     59  NH2       20.3930   19.4660    5.7510 N.pl3 130  ARG130      0.1354
     60  N         18.3150   13.9780   10.9320 N.am  131  THR131     -0.1937
     61  CA        18.9210   12.7010   11.2620 C.3   131  THR131      0.2028
     62  C         20.2130   12.5570   10.4600 C.2   131  THR131      0.2642
     63  O         20.6090   13.4720    9.7320 O.2   131  THR131     -0.2714
     64  CB        17.9680   11.5220   10.9590 C.3   131  THR131      0.1808
     65  OG1       18.5610   10.3070   11.4330 O.3   131  THR131     -0.2208
     66  CG2       17.6930   11.4080    9.4630 C.3   131  THR131      0.0379
     67  N         20.8760   11.4160   10.5970 N.am  132  SER132     -0.1949
     68  CA        22.1280   11.1880    9.8900 C.3   132  SER132      0.1924
     69  C         22.0160   10.0930    8.8390 C.2   132  SER132      0.2314
     70  O         21.6460    8.9610    9.1470 O.2   132  SER132     -0.2863
     71  CB        23.2310   10.8200   10.8870 C.3   132  SER132      0.2116
     72  OG        24.4740   10.6410   10.2270 O.3   132  SER132     -0.2180
     73  N         23.9520   15.1770    7.6160 N.3   142  ARG142     -0.1245
     74  CA        22.7100   15.5190    8.3050 C.3   142  ARG142      0.1563
     75  C         21.6290   15.9130    7.3030 C.2   142  ARG142      0.2260
     76  O         21.8530   16.7580    6.4350 O.2   142  ARG142     -0.2867
     77  CB        22.9560   16.6630    9.2930 C.3   142  ARG142      0.0307
     78  CG        23.8960   16.2970   10.4340 C.3   142  ARG142      0.0489
     79  CD        24.2940   17.5170   11.2490 C.3   142  ARG142      0.2205
     80  NE        25.0560   18.4760   10.4540 N.pl3 142  ARG142     -0.0865
     81  CZ        26.2750   18.9050   10.7660 C.cat 142  ARG142      0.5346
     82  NH1       26.8920   19.7790    9.9830 N.pl3 142  ARG142      0.1354
     83  NH2       26.8790   18.4600   11.8600 N.pl3 142  ARG142      0.1354
     84  N         14.6770    1.4700   24.6640 N.3   181  HIS181     -0.1241
     85  CA        14.9020    2.8960   24.4640 C.3   181  HIS181      0.1621
     86  C         13.5790    3.6500   24.4800 C.2   181  HIS181      0.2264
     87  O         12.9320    3.8280   23.4430 O.2   181  HIS181     -0.2867
     88  CB        15.6090    3.1530   23.1360 C.3   181  HIS181      0.0745
     89  CG        16.2850    4.4850   23.0720 C.ar  181  HIS181      0.0817
     90  ND1       15.8950    5.5490   23.8560 N.ar  181  HIS181     -0.2268
     91  CD2       17.3270    4.9250   22.3280 C.ar  181  HIS181      0.1154
     92  CE1       16.6720    6.5880   23.6000 C.ar  181  HIS181      0.1986
     93  NE2       17.5480    6.2340   22.6770 N.ar  181  HIS181     -0.2212
     94  N         14.6010   10.1270   24.7090 N.3   184  HIS184     -0.1241
     95  CA        15.1240   10.9880   23.6510 C.3   184  HIS184      0.1621
     96  C         14.3040   11.2370   22.3900 C.2   184  HIS184      0.2264
     97  O         14.8640   11.4430   21.3080 O.2   184  HIS184     -0.2867
     98  CB        16.5190   10.4730   23.2820 C.3   184  HIS184      0.0745
     99  CG        17.4390   10.3740   24.4600 C.ar  184  HIS184      0.0817
    100  ND1       18.5860    9.6080   24.4600 N.ar  184  HIS184     -0.2268
    101  CD2       17.3740   10.9530   25.6830 C.ar  184  HIS184      0.1154
    102  CE1       19.1860    9.7200   25.6320 C.ar  184  HIS184      0.1986
    103  NE2       18.4720   10.5300   26.3920 N.ar  184  HIS184     -0.2212
    104  N         12.3400    9.1900   20.6480 N.3   186  TYR186     -0.1241
    105  CA        12.1530    8.1240   19.6810 C.3   186  TYR186      0.1605
    106  C         10.7310    7.5740   19.8100 C.2   186  TYR186      0.2264
    107  O          9.9350    8.1320   20.5620 O.2   186  TYR186     -0.2867
    108  CB        13.2630    7.0810   19.8290 C.3   186  TYR186      0.0534
    109  CG        14.5980    7.6910   19.4310 C.ar  186  TYR186     -0.0201
    110  CD1       14.8070    8.1640   18.1330 C.ar  186  TYR186     -0.0009
    111  CD2       15.6070    7.8910   20.3710 C.ar  186  TYR186     -0.0009
    112  CE1       15.9820    8.8300   17.7830 C.ar  186  TYR186      0.0417
    113  CE2       16.7840    8.5540   20.0330 C.ar  186  TYR186      0.0417
    114  CZ        16.9650    9.0220   18.7420 C.ar  186  TYR186      0.1957
    115  OH        18.1250    9.6900   18.4200 O.3   186  TYR186     -0.2866
    116  N         15.4420   16.4410   21.9540 N.3   241  GLN241     -0.1245
    117  CA        15.2500   16.4130   20.5110 C.3   241  GLN241      0.1566
    118  C         13.8640   16.9050   20.1000 C.2   241  GLN241      0.2260
    119  O         13.1820   16.2750   19.2880 O.2   241  GLN241     -0.2867
    120  CB        15.4990   14.9960   19.9810 C.3   241  GLN241      0.0367
    121  CG        16.9140   14.5140   20.2620 C.3   241  GLN241      0.0905
    122  CD        17.3380   13.3540   19.3850 C.2   241  GLN241      0.2608
    123  OE1       17.0420   12.1920   19.6710 O.2   241  GLN241     -0.2717
    124  NE2       18.0320   13.6690   18.2970 N.am  241  GLN241     -0.0878
    125  N         22.0200   16.8100   25.1650 N.3   275  LEU275     -0.1245
    126  CA        23.3550   17.3600   24.9590 C.3   275  LEU275      0.1561
    127  C         23.4220   18.8490   25.2980 C.2   275  LEU275      0.2260
    128  O         24.4340   19.3280   25.8080 O.2   275  LEU275     -0.2867
    129  CB        23.8030   17.1260   23.5150 C.3   275  LEU275      0.0270
    130  CG        24.0020   15.6560   23.1340 C.3   275  LEU275      0.0019
    131  CD1       24.4370   15.5530   21.6800 C.3   275  LEU275      0.0001
    132  CD2       25.0450   15.0310   24.0500 C.3   275  LEU275      0.0001
    133  N         30.3470   10.2930   15.0500 N.3   351  TYR351     -0.1241
    134  CA        29.4660    9.6120   14.1020 C.3   351  TYR351      0.1605
    135  C         30.1040    9.2550   12.7650 C.2   351  TYR351      0.2264
    136  O         30.7280   10.0950   12.1160 O.2   351  TYR351     -0.2867
    137  CB        28.2290   10.4700   13.8200 C.3   351  TYR351      0.0534
    138  CG        27.5170   10.9610   15.0530 C.ar  351  TYR351     -0.0201
    139  CD1       26.8070   10.0870   15.8710 C.ar  351  TYR351     -0.0009
    140  CD2       27.5690   12.3060   15.4140 C.ar  351  TYR351     -0.0009
    141  CE1       26.1650   10.5440   17.0210 C.ar  351  TYR351      0.0417
    142  CE2       26.9370   12.7710   16.5600 C.ar  351  TYR351      0.0417
    143  CZ        26.2390   11.8870   17.3580 C.ar  351  TYR351      0.1957
    144  OH        25.6300   12.3530   18.5010 O.3   351  TYR351     -0.2866
@<TRIPOS>BOND
     1    59    57    1
     2    76    75    2
     3    57    58    1
     4    57    56    2
     5    75    74    1
     6    73    74    1
     7    56    55    1
     8    74    77    1
     9    69    70    2
    10    69    68    1
    11    77    78    1
    12    55    54    1
    13    66    64    1
    14    63    62    2
    15    68    67    1
    16    68    71    1
    17    82    81    1
    18    54    53    1
    19    10    11    2
    20    10     9    1
    21    72    71    1
    22    78    79    1
    23    80    81    2
    24    80    79    1
    25    62    67   am
    26    62    61    1
    27    53    50    1
    28    81    83    1
    29     9     8    1
    30     9    12    1
    31    60    61    1
    32    60    51   am
    33    64    61    1
    34    64    65    1
    35    50    51    1
    36    50    49    1
    37    45    44    2
    38    51    52    2
    39   136   135    2
    40    44    49   am
    41    44    43    1
    42    12    13    1
    43    36    37    2
    44    36    35    1
    45   135   134    1
    46    42    43    1
    47    13    15   ar
    48    13    14   ar
    49    15    17   ar
    50    43    46    1
    51    35    34    1
    52    35    38    1
    53   137   134    1
    54   137   138    1
    55    14    16   ar
    56   134   133    1
    57    17    18   ar
    58    48    46    1
    59    46    47    1
    60    40    38    1
    61    16    18   ar
    62    38    39    1
    63    18    19    1
    64   138   140   ar
    65   138   139   ar
    66   140   142   ar
    67    41    39    1
    68   139   141   ar
    69    31    29   ar
    70    31    33   ar
    71     7     5    1
    72   142   143   ar
    73    28    29   ar
    74    28    26   ar
    75    29    27   ar
    76   141   143   ar
    77    33    32   ar
    78   143   144    1
    79    26    25   ar
    80    23    22    2
    81   112   110   ar
    82   112   114   ar
    83     3     4    2
    84     3     2    1
    85     5     6    1
    86     5     2    1
    87    27    25   ar
    88    27    30   ar
    89   110   109   ar
    90    32    30   ar
    91   124   122   am
    92    22    21    1
    93    25    24    1
    94   115   114    1
    95     2     1    1
    96   114   113   ar
    97   119   118    2
    98   122   123    2
    99   122   121    1
   100   109   108    1
   101   109   111   ar
   102    24    21    1
   103    21    20    1
   104   105   106    1
   105   105   108    1
   106   105   104    1
   107   106   107    2
   108   120   121    1
   109   120   117    1
   110   113   111   ar
   111   118   117    1
   112   117   116    1
   113    97    96    2
   114   131   130    1
   115    91    93   ar
   116    91    89   ar
   117    96    95    1
   118    93    92   ar
   119    89    88    1
   120    89    90   ar
   121   130   129    1
   122   130   132    1
   123    88    85    1
   124    98    95    1
   125    98    99    1
   126    87    86    2
   127   129   126    1
   128    92    90   ar
   129    95    94    1
   130    99   100   ar
   131    99   101   ar
   132   100   102   ar
   133    85    86    1
   134    85    84    1
   135   126   125    1
   136   126   127    1
   137   127   128    2
   138   102   103   ar
   139   101   103   ar
