@<TRIPOS>MOLECULE
tmp/1h62A00.pdb
 150 143 0 0 0
SMALL
GASTEIGER

@<TRIPOS>ATOM
      1  N         25.3930    5.7890   20.0000 N.3    26  THR26      -0.1218
      2  CA        25.2570    5.6000   18.5600 C.3    26  THR26       0.1862
      3  C         26.5450    6.0810   17.8790 C.2    26  THR26       0.2287
      4  O         26.9390    7.2300   18.0560 O.2    26  THR26      -0.2866
      5  CB        24.0730    6.4240   18.0290 C.3    26  THR26       0.1770
      6  OG1       22.8490    5.8400   18.4840 O.3    26  THR26      -0.2211
      7  CG2       24.0910    6.4900   16.5130 C.3    26  THR26       0.0375
      8  N         27.2490    5.0590   14.3960 N.3    28  LEU28      -0.1245
      9  CA        26.9780    4.9880   12.9570 C.3    28  LEU28       0.1561
     10  C         28.0890    4.4230   12.0770 C.2    28  LEU28       0.2260
     11  O         28.4090    4.9810   11.0300 O.2    28  LEU28      -0.2867
     12  CB        26.5720    6.3770   12.4500 C.3    28  LEU28       0.0270
     13  CG        25.4050    7.0140   13.2200 C.3    28  LEU28       0.0019
     14  CD1       25.0290    8.3410   12.5890 C.3    28  LEU28       0.0001
     15  CD2       24.2090    6.0750   13.2020 C.3    28  LEU28       0.0001
     16  N         22.1850    2.2770   20.1700 N.3    58  ALA58      -0.1245
     17  CA        20.7980    1.9660   19.8390 C.3    58  ALA58       0.1562
     18  C         20.7720    1.0370   18.6220 C.2    58  ALA58       0.2260
     19  O         21.4670    1.2810   17.6320 O.2    58  ALA58      -0.2867
     20  CB        20.0400    3.2600   19.5460 C.3    58  ALA58       0.0290
     21  N         18.6770    6.1630   11.1200 N.3    68  TYR68      -0.1241
     22  CA        20.0180    6.6780   10.8370 C.3    68  TYR68       0.1605
     23  C         20.8230    5.6860   10.0140 C.2    68  TYR68       0.2264
     24  O         20.8250    4.4820   10.2970 O.2    68  TYR68      -0.2867
     25  CB        20.8260    6.9300   12.1190 C.3    68  TYR68       0.0534
     26  CG        20.2450    7.9200   13.0940 C.ar   68  TYR68      -0.0201
     27  CD1       19.0840    7.6270   13.8020 C.ar   68  TYR68      -0.0009
     28  CD2       20.8790    9.1410   13.3380 C.ar   68  TYR68      -0.0009
     29  CE1       18.5670    8.5220   14.7310 C.ar   68  TYR68       0.0417
     30  CE2       20.3690   10.0440   14.2630 C.ar   68  TYR68       0.0417
     31  CZ        19.2130    9.7230   14.9560 C.ar   68  TYR68       0.1957
     32  OH        18.6990   10.5960   15.8770 O.3    68  TYR68      -0.2866
     33  N         15.6990    0.0930   19.8290 N.3   102  TRP102     -0.1241
     34  CA        14.8400    1.2410   19.5630 C.3   102  TRP102      0.1605
     35  C         14.1040    1.1360   18.2500 C.2   102  TRP102      0.2264
     36  O         14.3440    0.2390   17.4370 O.2   102  TRP102     -0.2867
     37  CB        15.6530    2.5450   19.5310 C.3   102  TRP102      0.0550
     38  CG        16.5840    2.6960   18.3340 C.ar  102  TRP102      0.0003
     39  CD1       16.9170    1.7340   17.4150 C.ar  102  TRP102      0.0946
     40  CD2       17.3600    3.8590   17.9900 C.ar  102  TRP102      0.0152
     41  NE1       17.8530    2.2240   16.5320 N.ar  102  TRP102     -0.2442
     42  CE2       18.1440    3.5220   16.8640 C.ar  102  TRP102      0.0810
     43  CE3       17.4730    5.1480   18.5330 C.ar  102  TRP102      0.0012
     44  CZ2       19.0290    4.4280   16.2680 C.ar  102  TRP102      0.0191
     45  CZ3       18.3550    6.0520   17.9430 C.ar  102  TRP102      0.0001
     46  CH2       19.1220    5.6850   16.8210 C.ar  102  TRP102      0.0015
     47  N         13.6060   18.2680   13.2110 N.3   129  THR129     -0.1203
     48  CA        15.0010   18.1600   13.5850 C.3   129  THR129      0.1994
     49  C         15.6710   17.4470   12.4190 C.2   129  THR129      0.2617
     50  O         15.1090   17.3780   11.3270 O.2   129  THR129     -0.2717
     51  CB        15.1670   17.3580   14.9020 C.3   129  THR129      0.1784
     52  OG1       16.5150   17.4760   15.3660 O.3   129  THR129     -0.2211
     53  CG2       14.8350   15.8850   14.6920 C.3   129  THR129      0.0376
     54  N         16.8690   16.9250   12.6230 N.am  130  ARG130     -0.1979
     55  CA        17.5310   16.2350   11.5310 C.3   130  ARG130      0.1597
     56  C         18.0830   14.8990   12.0030 C.2   130  ARG130      0.2287
     57  O         18.2010   14.6470   13.2060 O.2   130  ARG130     -0.2864
     58  CB        18.6580   17.1020   10.9560 C.3   130  ARG130      0.0334
     59  CG        18.3070   18.5730   10.7890 C.3   130  ARG130      0.0492
     60  CD        19.4410   19.3540   10.1360 C.3   130  ARG130      0.2205
     61  NE        19.2630   19.4790    8.6860 N.pl3 130  ARG130     -0.0865
     62  CZ        20.0680   20.1730    7.8860 C.cat 130  ARG130      0.5346
     63  NH1       21.1210   20.8100    8.3860 N.pl3 130  ARG130      0.1354
     64  NH2       19.8170   20.2380    6.5840 N.pl3 130  ARG130      0.1354
     65  N         20.8910   11.4480   10.6740 N.3   132  SER132     -0.1217
     66  CA        22.1190   11.2140    9.9360 C.3   132  SER132      0.1889
     67  C         21.9800   10.1640    8.8490 C.2   132  SER132      0.2288
     68  O         21.5020    9.0560    9.0920 O.2   132  SER132     -0.2866
     69  CB        23.2340   10.7800   10.8880 C.3   132  SER132      0.2089
     70  OG        23.3520   11.6780   11.9710 O.3   132  SER132     -0.2183
     71  N         23.9890   15.3170    7.7260 N.3   142  ARG142     -0.1245
     72  CA        22.7550   15.6870    8.4170 C.3   142  ARG142      0.1563
     73  C         21.6690   16.0320    7.4040 C.2   142  ARG142      0.2260
     74  O         21.9200   16.7410    6.4280 O.2   142  ARG142     -0.2867
     75  CB        23.0010   16.8900    9.3330 C.3   142  ARG142      0.0307
     76  CG        24.1460   16.7010   10.3310 C.3   142  ARG142      0.0489
     77  CD        23.7910   15.7430   11.4560 C.3   142  ARG142      0.2205
     78  NE        22.7240   16.2950   12.2830 N.pl3 142  ARG142     -0.0865
     79  CZ        21.4290   16.1790   12.0100 C.cat 142  ARG142      0.5346
     80  NH1       21.0320   15.5120   10.9340 N.pl3 142  ARG142      0.1354
     81  NH2       20.5270   16.7590   12.7950 N.pl3 142  ARG142      0.1354
     82  N         14.6640    1.4530   24.5150 N.3   181  HIS181     -0.1241
     83  CA        14.9190    2.8810   24.3480 C.3   181  HIS181      0.1621
     84  C         13.5990    3.6380   24.3730 C.2   181  HIS181      0.2264
     85  O         12.9910    3.8860   23.3320 O.2   181  HIS181     -0.2867
     86  CB        15.6390    3.1540   23.0220 C.3   181  HIS181      0.0745
     87  CG        16.3040    4.4960   22.9590 C.ar  181  HIS181      0.0817
     88  ND1       15.9000    5.5670   23.7300 N.ar  181  HIS181     -0.2268
     89  CD2       17.3350    4.9460   22.2050 C.ar  181  HIS181      0.1154
     90  CE1       16.6530    6.6170   23.4530 C.ar  181  HIS181      0.1986
     91  NE2       17.5320    6.2680   22.5310 N.ar  181  HIS181     -0.2212
     92  N         14.5870   10.0740   24.7270 N.3   184  HIS184     -0.1241
     93  CA        15.1320   10.9480   23.7000 C.3   184  HIS184      0.1621
     94  C         14.3020   11.2410   22.4510 C.2   184  HIS184      0.2264
     95  O         14.8480   11.5350   21.3860 O.2   184  HIS184     -0.2867
     96  CB        16.5190   10.4170   23.3240 C.3   184  HIS184      0.0745
     97  CG        17.4580   10.3310   24.4920 C.ar  184  HIS184      0.0817
     98  ND1       18.6690    9.6750   24.4350 N.ar  184  HIS184     -0.2268
     99  CD2       17.3750   10.8540   25.7380 C.ar  184  HIS184      0.1154
    100  CE1       19.2940    9.8010   25.5930 C.ar  184  HIS184      0.1986
    101  NE2       18.5290   10.5120   26.4020 N.ar  184  HIS184     -0.2212
    102  N         12.3190    9.1940   20.6530 N.3   186  TYR186     -0.1241
    103  CA        12.1420    8.1460   19.6640 C.3   186  TYR186      0.1605
    104  C         10.7250    7.5890   19.8130 C.2   186  TYR186      0.2264
    105  O          9.9630    8.0900   20.6370 O.2   186  TYR186     -0.2867
    106  CB        13.2550    7.1050   19.8080 C.3   186  TYR186      0.0534
    107  CG        14.5830    7.7270   19.4060 C.ar  186  TYR186     -0.0201
    108  CD1       14.8070    8.1380   18.0880 C.ar  186  TYR186     -0.0009
    109  CD2       15.5570    8.0280   20.3580 C.ar  186  TYR186     -0.0009
    110  CE1       15.9570    8.8400   17.7290 C.ar  186  TYR186      0.0417
    111  CE2       16.7150    8.7300   20.0080 C.ar  186  TYR186      0.0417
    112  CZ        16.9060    9.1350   18.6960 C.ar  186  TYR186      0.1957
    113  OH        18.0430    9.8380   18.3480 O.3   186  TYR186     -0.2866
    114  N         15.3040   16.4890   21.8780 N.3   241  GLN241     -0.1245
    115  CA        15.0150   16.4110   20.4490 C.3   241  GLN241      0.1566
    116  C         13.6430   16.9900   20.1150 C.2   241  GLN241      0.2260
    117  O         12.8990   16.4250   19.3110 O.2   241  GLN241     -0.2867
    118  CB        15.0810   14.9520   19.9850 C.3   241  GLN241      0.0367
    119  CG        16.4800   14.3640   19.9630 C.3   241  GLN241      0.0905
    120  CD        17.2640   14.7870   18.7370 C.2   241  GLN241      0.2608
    121  OE1       17.3760   15.9800   18.4350 O.2   241  GLN241     -0.2717
    122  NE2       17.8140   13.8130   18.0220 N.am  241  GLN241     -0.0878
    123  N         19.5120   16.1770   28.0280 N.3   274  ASP274     -0.1225
    124  CA        20.0600   15.8730   26.7140 C.3   274  ASP274      0.1805
    125  C         21.3840   16.6290   26.6550 C.2   274  ASP274      0.2597
    126  O         21.7240   17.3630   27.5850 O.2   274  ASP274     -0.2718
    127  CB        19.1230   16.3240   25.5870 C.3   274  ASP274      0.1424
    128  CG        19.0360   17.8230   25.4630 C.2   274  ASP274      0.3668
    129  OD1       18.4810   18.4610   26.3810 O.co2 274  ASP274     -0.2456
    130  OD2       19.5240   18.3610   24.4440 O.co2 274  ASP274     -0.2456
    131  N         22.1290   16.4520   25.5740 N.am  275  LEU275     -0.1979
    132  CA        23.4260   17.0990   25.4330 C.3   275  LEU275      0.1596
    133  C         23.4220   18.6040   25.7220 C.2   275  LEU275      0.2287
    134  O         24.4430   19.1670   26.1150 O.2   275  LEU275     -0.2864
    135  CB        23.9840   16.8100   24.0380 C.3   275  LEU275      0.0297
    136  CG        24.0980   15.3080   23.7470 C.3   275  LEU275      0.0022
    137  CD1       24.6220   15.0850   22.3410 C.3   275  LEU275      0.0001
    138  CD2       25.0180   14.6510   24.7700 C.3   275  LEU275      0.0001
    139  N         30.4370   10.3190   15.1670 N.3   351  TYR351     -0.1241
    140  CA        29.5480    9.6770   14.1960 C.3   351  TYR351      0.1605
    141  C         30.1930    9.3280   12.8580 C.2   351  TYR351      0.2264
    142  O         30.8590   10.1610   12.2390 O.2   351  TYR351     -0.2867
    143  CB        28.3390   10.5790   13.9230 C.3   351  TYR351      0.0534
    144  CG        27.5650   10.9740   15.1540 C.ar  351  TYR351     -0.0201
    145  CD1       26.8570   10.0280   15.8870 C.ar  351  TYR351     -0.0009
    146  CD2       27.5360   12.3000   15.5860 C.ar  351  TYR351     -0.0009
    147  CE1       26.1360   10.3900   17.0220 C.ar  351  TYR351      0.0417
    148  CE2       26.8180   12.6730   16.7270 C.ar  351  TYR351      0.0417
    149  CZ        26.1210   11.7110   17.4350 C.ar  351  TYR351      0.1957
    150  OH        25.4050   12.0650   18.5570 O.3   351  TYR351     -0.2866
@<TRIPOS>BOND
     1    74    73    2
     2    64    62    1
     3    73    72    1
     4    71    72    1
     5    62    63    1
     6    62    61    2
     7    72    75    1
     8    61    60    1
     9    67    68    2
    10    67    66    1
    11    75    76    1
    12    66    65    1
    13    66    69    1
    14    23    24    2
    15    23    22    1
    16    60    59    1
    17    76    77    1
    18    59    58    1
    19    22    21    1
    20    22    25    1
    21    69    70    1
    22    80    79    1
    23    58    55    1
    24    11    10    2
    25    50    49    2
    26    77    78    1
    27    55    56    1
    28    55    54    1
    29    56    57    2
    30    79    78    2
    31    79    81    1
    32    10     9    1
    33    25    26    1
    34   142   141    2
    35    49    54   am
    36    49    48    1
    37    12     9    1
    38    12    13    1
    39    14    13    1
    40   141   140    1
    41     9     8    1
    42    26    28   ar
    43    26    27   ar
    44    15    13    1
    45    47    48    1
    46    28    30   ar
    47    48    51    1
    48    27    29   ar
    49   143   140    1
    50   143   144    1
    51   140   139    1
    52    30    31   ar
    53    53    51    1
    54    29    31   ar
    55    51    52    1
    56    31    32    1
    57   144   146   ar
    58   144   145   ar
    59   146   148   ar
    60   145   147   ar
    61    44    46   ar
    62    44    42   ar
    63     7     5    1
    64    41    42   ar
    65    41    39   ar
    66   148   149   ar
    67    46    45   ar
    68    42    40   ar
    69   147   149   ar
    70    39    38   ar
    71   149   150    1
    72    36    35    2
    73    19    18    2
    74   110   108   ar
    75   110   112   ar
    76     3     4    2
    77     3     2    1
    78    45    43   ar
    79    40    38   ar
    80    40    43   ar
    81   122   120   am
    82     5     6    1
    83     5     2    1
    84   108   107   ar
    85    35    34    1
    86    38    37    1
    87   113   112    1
    88   121   120    2
    89     2     1    1
    90    18    17    1
    91   112   111   ar
    92   120   119    1
    93   117   116    2
    94   107   106    1
    95   107   109   ar
    96    37    34    1
    97    20    17    1
    98    34    33    1
    99   103   106    1
   100   103   104    1
   101   103   102    1
   102   104   105    2
   103    17    16    1
   104   119   118    1
   105   118   115    1
   106   111   109   ar
   107   116   115    1
   108   115   114    1
   109    95    94    2
   110    89    91   ar
   111    89    87   ar
   112   137   136    1
   113    94    93    1
   114    91    90   ar
   115    87    86    1
   116    87    88   ar
   117    86    83    1
   118    96    93    1
   119    96    97    1
   120    85    84    2
   121    90    88   ar
   122    93    92    1
   123   136   135    1
   124   136   138    1
   125   135   132    1
   126    83    84    1
   127    83    82    1
   128    98    97   ar
   129    98   100   ar
   130   130   128   ar
   131    97    99   ar
   132   132   131    1
   133   132   133    1
   134   128   127    1
   135   128   129   ar
   136   131   125   am
   137   127   124    1
   138   100   101   ar
   139   133   134    2
   140    99   101   ar
   141   125   124    1
   142   125   126    2
   143   124   123    1
