@<TRIPOS>MOLECULE
tmp/1h65A00.pdb
 131 127 0 0 0
SMALL
GASTEIGER

@<TRIPOS>ATOM
      1  N          7.3670   22.8860   30.2260 N.3    41  GLY41      -0.1210
      2  CA         6.9220   21.6460   30.8350 C.3    41  GLY41       0.1956
      3  C          5.8670   20.8400   30.0930 C.2    41  GLY41       0.2612
      4  O          5.1490   20.0660   30.7150 O.2    41  GLY41      -0.2717
      5  N          5.7570   21.0080   28.7780 N.am   42  VAL42      -0.1965
      6  CA         4.7630   20.2530   28.0070 C.3    42  VAL42       0.1727
      7  C          5.3920   19.0780   27.2430 C.2    42  VAL42       0.2617
      8  O          4.6900   18.2720   26.6190 O.2    42  VAL42      -0.2715
      9  CB         4.0090   21.1720   27.0130 C.3    42  VAL42       0.0290
     10  CG1        3.2690   22.2560   27.7870 C.3    42  VAL42       0.0023
     11  CG2        4.9770   21.7930   26.0260 C.3    42  VAL42       0.0023
     12  N          6.7200   18.9850   27.3050 N.am   43  GLY43      -0.1940
     13  CA         7.4370   17.9100   26.6440 C.3    43  GLY43       0.2014
     14  C          8.0310   18.2750   25.2970 C.2    43  GLY43       0.2639
     15  O          8.0990   17.4310   24.4070 O.2    43  GLY43      -0.2714
     16  N          8.4680   19.5220   25.1360 N.am   44  LYS44      -0.1963
     17  CA         9.0600   19.9520   23.8750 C.3    44  LYS44       0.1728
     18  C         10.4050   19.2790   23.6270 C.2    44  LYS44       0.2617
     19  O         10.6370   18.6940   22.5680 O.2    44  LYS44      -0.2715
     20  CB         9.2640   21.4660   23.8570 C.3    44  LYS44       0.0311
     21  CG         7.9960   22.2850   23.9980 C.3    44  LYS44       0.0038
     22  CD         8.2740   23.7800   23.8340 C.3    44  LYS44       0.0206
     23  CE         9.2940   24.3120   24.8470 C.3    44  LYS44       0.1093
     24  NZ         8.8840   24.1130   26.2720 N.3    44  LYS44      -0.1314
     25  N         11.2970   19.3780   24.6010 N.am   45  SER45      -0.1936
     26  CA        12.6100   18.7870   24.4370 C.3    45  SER45       0.2055
     27  C         12.5260   17.2670   24.4680 C.2    45  SER45       0.2643
     28  O         13.3350   16.5960   23.8210 O.2    45  SER45      -0.2714
     29  CB        13.5810   19.3380   25.4890 C.3    45  SER45       0.2130
     30  OG        13.2100   20.6430   25.9060 O.3    45  SER45      -0.2179
     31  N         11.5440   16.7030   25.1750 N.am   46  SER46      -0.1949
     32  CA        11.4090   15.2400   25.1690 C.3    46  SER46       0.1924
     33  C         11.0050   14.7960   23.7640 C.2    46  SER46       0.2314
     34  O         11.3930   13.7260   23.3110 O.2    46  SER46      -0.2863
     35  CB        10.3450   14.7540   26.1660 C.3    46  SER46       0.2116
     36  OG        10.7620   14.9210   27.5190 O.3    46  SER46      -0.2180
     37  N         18.3210   18.6900   27.0300 N.3    58  SER58      -0.1202
     38  CA        18.0010   18.5590   28.4480 C.3    58  SER58       0.2020
     39  C         16.5080   18.5310   28.7570 C.2    58  SER58       0.2619
     40  O         15.7330   19.2890   28.1770 O.2    58  SER58      -0.2717
     41  CB        18.6260   19.7130   29.2290 C.3    58  SER58       0.2103
     42  OG        17.8800   19.9560   30.4070 O.3    58  SER58      -0.2182
     43  N         16.1150   17.6700   29.6880 N.am   59  ILE59      -0.1965
     44  CA        14.7200   17.5680   30.1050 C.3    59  ILE59       0.1727
     45  C         14.6570   17.5860   31.6310 C.2    59  ILE59       0.2617
     46  O         15.3490   16.8150   32.2900 O.2    59  ILE59      -0.2715
     47  CB        14.0540   16.2580   29.5930 C.3    59  ILE59       0.0290
     48  CG1       14.8100   15.0310   30.1080 C.3    59  ILE59       0.0022
     49  CG2       14.0160   16.2550   28.0740 C.3    59  ILE59       0.0023
     50  CD1       14.1830   13.7130   29.7080 C.3    59  ILE59       0.0001
     51  N         13.8510   18.4750   32.2010 N.am   60  SER60      -0.1936
     52  CA        13.7410   18.5310   33.6530 C.3    60  SER60       0.2040
     53  C         12.3030   18.5540   34.1430 C.2    60  SER60       0.2485
     54  O         11.5050   19.4000   33.7350 O.2    60  SER60      -0.2729
     55  CB        14.4720   19.7520   34.2090 C.3    60  SER60       0.2129
     56  OG        14.2500   19.8680   35.6070 O.3    60  SER60      -0.2179
     57  N         11.9570   17.6150   35.0350 N.am   61  PRO61      -0.2726
     58  CA        10.6090   17.5230   35.5940 C.3    61  PRO61       0.1402
     59  C         10.3920   18.4870   36.7610 C.2    61  PRO61       0.2269
     60  O          9.3050   18.5310   37.3330 O.2    61  PRO61      -0.2865
     61  CB        10.5280   16.0670   36.0260 C.3    61  PRO61       0.0296
     62  CG        11.9220   15.8080   36.5050 C.3    61  PRO61       0.0237
     63  CD        12.7620   16.4400   35.4180 C.3    61  PRO61       0.0939
     64  N         13.5090   25.2280   32.2590 N.3    65  GLU65      -0.1245
     65  CA        14.3350   25.0530   31.0720 C.3    65  GLU65       0.1567
     66  C         15.4670   26.0540   30.9870 C.2    65  GLU65       0.2260
     67  O         15.4580   27.0840   31.6620 O.2    65  GLU65      -0.2867
     68  CB        13.4680   25.1680   29.8210 C.3    65  GLU65       0.0388
     69  CG        12.2340   24.2870   29.8630 C.3    65  GLU65       0.1160
     70  CD        11.3080   24.5590   28.7160 C.2    65  GLU65       0.3649
     71  OE1       11.5670   24.0520   27.6060 O.co2  65  GLU65      -0.2457
     72  OE2       10.3170   25.2930   28.9120 O.co2  65  GLU65      -0.2457
     73  N          1.4730   15.7160   23.7690 N.3   152  THR152     -0.1203
     74  CA         2.2740   14.7000   24.4480 C.3   152  THR152      0.1994
     75  C          1.4890   13.9460   25.5100 C.2   152  THR152      0.2617
     76  O          0.3500   14.2960   25.8070 O.2   152  THR152     -0.2717
     77  CB         3.4680   15.3550   25.1410 C.3   152  THR152      0.1784
     78  OG1        2.9780   16.3170   26.0880 O.3   152  THR152     -0.2211
     79  CG2        4.3580   16.0670   24.1220 C.3   152  THR152      0.0376
     80  N          2.1100   12.9220   26.0940 N.am  153  HIS153     -0.1975
     81  CA         1.4570   12.1190   27.1290 C.3   153  HIS153      0.1656
     82  C          0.2600   11.4000   26.5230 C.2   153  HIS153      0.2291
     83  O         -0.7130   11.1440   27.2200 O.2   153  HIS153     -0.2864
     84  CB         0.9450   13.0090   28.2740 C.3   153  HIS153      0.0771
     85  CG         2.0250   13.7020   29.0490 C.ar  153  HIS153      0.0820
     86  ND1        2.3120   13.3910   30.3610 N.ar  153  HIS153     -0.2267
     87  CD2        2.8520   14.7210   28.7130 C.ar  153  HIS153      0.1154
     88  CE1        3.2720   14.1910   30.8010 C.ar  153  HIS153      0.1986
     89  NE2        3.6150   15.0040   29.8230 N.ar  153  HIS153     -0.2212
     90  N          1.6020   12.3100   20.7360 N.3   199  ILE199     -0.1231
     91  CA         2.9580   11.9020   21.0810 C.3   199  ILE199      0.1692
     92  C          3.1010   11.2690   22.4710 C.2   199  ILE199      0.2592
     93  O          2.5300   11.7480   23.4490 O.2   199  ILE199     -0.2718
     94  CB         3.8880   13.1350   21.0270 C.3   199  ILE199      0.0266
     95  CG1        3.9370   13.6770   19.5930 C.3   199  ILE199      0.0019
     96  CG2        5.2610   12.7880   21.5630 C.3   199  ILE199      0.0020
     97  CD1        4.8830   14.8400   19.4020 C.3   199  ILE199      0.0001
     98  N          3.8760   10.1970   22.5600 N.am  200  GLU200     -0.1966
     99  CA         4.1510    9.5700   23.8470 C.3   200  GLU200      0.1733
    100  C          5.6480    9.2990   23.9040 C.2   200  GLU200      0.2616
    101  O          6.1410    8.3160   23.3500 O.2   200  GLU200     -0.2715
    102  CB         3.3740    8.2630   24.0400 C.3   200  GLU200      0.0429
    103  CG         3.6750    7.5980   25.3870 C.3   200  GLU200      0.1163
    104  CD         3.4470    8.5380   26.5660 C.2   200  GLU200      0.3649
    105  OE1        2.2750    8.8490   26.8610 O.co2 200  GLU200     -0.2457
    106  OE2        4.4300    8.9810   27.2080 O.co2 200  GLU200     -0.2457
    107  N          6.3530   10.1980   24.5810 N.am  201  ASN201     -0.1958
    108  CA         7.7950   10.1440   24.7370 C.3   201  ASN201      0.1819
    109  C          8.2570    9.1160   25.7630 C.2   201  ASN201      0.2622
    110  O          9.4430    8.7780   25.8330 O.2   201  ASN201     -0.2715
    111  CB         8.3090   11.5250   25.1600 C.3   201  ASN201      0.1195
    112  CG         8.0160   12.6070   24.1340 C.2   201  ASN201      0.2630
    113  OD1        7.4250   13.6530   24.4520 O.2   201  ASN201     -0.2716
    114  ND2        8.4230   12.3680   22.9050 N.am  201  ASN201     -0.0877
    115  N          7.3220    8.6350   26.5730 N.am  202  SER202     -0.1950
    116  CA         7.6310    7.6560   27.6120 C.3   202  SER202      0.1924
    117  C          8.2380    6.3690   27.0700 C.2   202  SER202      0.2314
    118  O          7.9320    5.9400   25.9570 O.2   202  SER202     -0.2863
    119  CB         6.3660    7.3020   28.3980 C.3   202  SER202      0.2116
    120  OG         6.6140    6.2340   29.2920 O.3   202  SER202     -0.2180
    121  N          7.6980    3.6690   28.5240 N.3   204  ARG204     -0.1245
    122  CA         6.7230    2.6590   28.9100 C.3   204  ARG204      0.1563
    123  C          5.6040    2.5720   27.8780 C.2   204  ARG204      0.2260
    124  O          4.6410    1.8210   28.0490 O.2   204  ARG204     -0.2867
    125  CB         6.1310    2.9850   30.2890 C.3   204  ARG204      0.0307
    126  CG         7.1660    3.2140   31.3840 C.3   204  ARG204      0.0489
    127  CD         6.5050    3.3400   32.7520 C.3   204  ARG204      0.2205
    128  NE         7.4370    3.7740   33.7960 N.pl3 204  ARG204     -0.0865
    129  CZ         7.8720    5.0240   33.9500 C.cat 204  ARG204      0.5346
    130  NH1        7.4620    5.9800   33.1270 N.pl3 204  ARG204      0.1354
    131  NH2        8.7160    5.3240   34.9310 N.pl3 204  ARG204      0.1354
@<TRIPOS>BOND
     1    97    95    1
     2    95    94    1
     3    90    91    1
     4    94    91    1
     5    94    96    1
     6    91    92    1
     7    92    98   am
     8    92    93    2
     9    98    99    1
    10    19    18    2
    11   114   112   am
    12    34    33    2
    13   101   100    2
    14    18    17    1
    15    18    25   am
    16    33    32    1
    17    73    74    1
    18    28    27    2
    19    22    21    1
    20    22    23    1
    21    99   100    1
    22    99   102    1
    23    20    17    1
    24    20    21    1
    25    17    16    1
    26   100   107   am
    27   102   103    1
    28    79    77    1
    29   112   113    2
    30   112   111    1
    31    15    14    2
    32    26    27    1
    33    26    25    1
    34    26    29    1
    35    74    77    1
    36    74    75    1
    37    27    31   am
    38   107   108    1
    39   108   111    1
    40   108   109    1
    41    23    24    1
    42    16    14   am
    43    77    78    1
    44    32    31    1
    45    32    35    1
    46    14    13    1
    47   103   104    1
    48    29    30    1
    49    75    76    2
    50    75    80   am
    51   109   110    2
    52   109   115   am
    53   118   117    2
    54    11     9    1
    55    80    81    1
    56    35    36    1
    57    82    81    1
    58    82    83    2
    59   104   105   ar
    60   104   106   ar
    61   115   116    1
    62     8     7    2
    63    13    12    1
    64     9    10    1
    65     9     6    1
    66    37    38    1
    67   117   116    1
    68    81    84    1
    69     7    12   am
    70     7     6    1
    71    71    70   ar
    72   116   119    1
    73   123   124    2
    74   123   122    1
    75     6     5    1
    76    49    47    1
    77    40    39    2
    78    84    85    1
    79   119   120    1
    80    38    39    1
    81    38    41    1
    82   121   122    1
    83    87    85   ar
    84    87    89   ar
    85    70    72   ar
    86    70    69    1
    87    39    43   am
    88     5     3   am
    89   122   125    1
    90    85    86   ar
    91    41    42    1
    92    47    44    1
    93    47    48    1
    94    43    44    1
    95    50    48    1
    96    68    69    1
    97    68    65    1
    98    89    88   ar
    99     3     4    2
   100     3     2    1
   101    44    45    1
   102     1     2    1
   103   125   126    1
   104    86    88   ar
   105    66    65    1
   106    66    67    2
   107    65    64    1
   108   126   127    1
   109    45    51   am
   110    45    46    2
   111    51    52    1
   112   127   128    1
   113   130   129    1
   114    52    53    1
   115    52    55    1
   116    54    53    2
   117   128   129    2
   118   129   131    1
   119    53    57   am
   120    55    56    1
   121    57    63    1
   122    57    58    1
   123    63    62    1
   124    58    61    1
   125    58    59    1
   126    61    62    1
   127    59    60    2
