@<TRIPOS>MOLECULE
tmp/1h69A01.pdb
 89 89 0 0 0
SMALL
GASTEIGER

@<TRIPOS>ATOM
      1  N         15.3920   -1.5880    4.6810 N.3   105  TRP105     -0.1227
      2  CA        15.4220   -0.8670    5.9340 C.3   105  TRP105      0.1737
      3  C         14.0190   -0.8250    6.5040 C.2   105  TRP105      0.2595
      4  O         13.4880    0.2230    6.8490 O.2   105  TRP105     -0.2718
      5  CB        16.0100    0.5260    5.7590 C.3   105  TRP105      0.0564
      6  CG        17.4780    0.4550    5.5840 C.ar  105  TRP105      0.0003
      7  CD1       18.1820    0.7030    4.4450 C.ar  105  TRP105      0.0946
      8  CD2       18.4330    0.0310    6.5630 C.ar  105  TRP105      0.0152
      9  NE1       19.5200    0.4570    4.6520 N.ar  105  TRP105     -0.2442
     10  CE2       19.6990    0.0450    5.9460 C.ar  105  TRP105      0.0810
     11  CE3       18.3400   -0.3630    7.9050 C.ar  105  TRP105      0.0012
     12  CZ2       20.8770   -0.3200    6.6320 C.ar  105  TRP105      0.0191
     13  CZ3       19.5080   -0.7280    8.5870 C.ar  105  TRP105      0.0001
     14  CH2       20.7570   -0.7010    7.9480 C.ar  105  TRP105      0.0015
     15  N         13.4280   -2.0120    6.5730 N.am  106  PHE106     -0.1976
     16  CA        12.1020   -2.2300    7.1200 C.3   106  PHE106      0.1639
     17  C         11.0030   -1.3560    6.5720 C.2   106  PHE106      0.2290
     18  O         10.1650   -0.8880    7.3190 O.2   106  PHE106     -0.2864
     19  CB        12.1350   -2.0980    8.6470 C.3   106  PHE106      0.0560
     20  CG        13.1600   -2.9780    9.3050 C.ar  106  PHE106     -0.0200
     21  CD1       14.4990   -2.6160    9.3090 C.ar  106  PHE106     -0.0042
     22  CD2       12.7860   -4.1790    9.8980 C.ar  106  PHE106     -0.0042
     23  CE1       15.4550   -3.4350    9.8940 C.ar  106  PHE106     -0.0003
     24  CE2       13.7350   -5.0140   10.4890 C.ar  106  PHE106     -0.0003
     25  CZ        15.0740   -4.6410   10.4880 C.ar  106  PHE106     -0.0000
     26  N         15.3550  -10.2780    3.1960 N.3   149  GLY149     -0.1210
     27  CA        16.6770  -10.8380    3.3310 C.3   149  GLY149      0.1956
     28  C         16.6480  -11.7670    4.5260 C.2   149  GLY149      0.2612
     29  O         17.1380  -12.8900    4.4710 O.2   149  GLY149     -0.2717
     30  N         16.0360  -11.3050    5.6070 N.am  150  GLY150     -0.1942
     31  CA        15.9720  -12.1040    6.8130 C.3   150  GLY150      0.2014
     32  C         14.9160  -13.1860    6.8230 C.2   150  GLY150      0.2639
     33  O         13.9350  -13.1340    6.0870 O.2   150  GLY150     -0.2714
     34  N         15.1250  -14.1710    7.6890 N.am  151  SER151     -0.1949
     35  CA        14.2090  -15.2950    7.8400 C.3   151  SER151      0.1924
     36  C         12.9240  -14.8980    8.5440 C.2   151  SER151      0.2314
     37  O         12.8900  -13.9510    9.3280 O.2   151  SER151     -0.2863
     38  CB        14.8730  -16.4050    8.6460 C.3   151  SER151      0.2116
     39  OG        15.1070  -15.9740    9.9750 O.3   151  SER151     -0.2180
     40  N         13.0330  -14.3920   12.2760 N.3   154  MET154     -0.1230
     41  CA        13.5720  -13.1260   12.7370 C.3   154  MET154      0.1702
     42  C         12.4510  -12.1130   12.8900 C.2   154  MET154      0.2592
     43  O         12.5880  -11.1440   13.6370 O.2   154  MET154     -0.2718
     44  CB        14.5940  -12.5880   11.7330 C.3   154  MET154      0.0401
     45  CG        15.8620  -13.3990   11.6450 C.3   154  MET154      0.0596
     46  SD        16.9790  -12.7640   10.3970 S.3   154  MET154     -0.1393
     47  CE        17.9520  -11.6080   11.3670 C.3   154  MET154      0.0692
     48  N         11.3460  -12.3400   12.1790 N.am  155  TYR155     -0.1976
     49  CA        10.2060  -11.4290   12.2180 C.3   155  TYR155      0.1639
     50  C          8.9970  -11.9440   13.0020 C.2   155  TYR155      0.2290
     51  O          7.9210  -11.3400   12.9590 O.2   155  TYR155     -0.2864
     52  CB         9.7840  -11.0730   10.7880 C.3   155  TYR155      0.0560
     53  CG        10.7960  -10.2330   10.0380 C.ar  155  TYR155     -0.0198
     54  CD1       10.8490   -8.8460   10.2010 C.ar  155  TYR155     -0.0009
     55  CD2       11.6990  -10.8310    9.1530 C.ar  155  TYR155     -0.0009
     56  CE1       11.7750   -8.0760    9.4910 C.ar  155  TYR155      0.0417
     57  CE2       12.6290  -10.0770    8.4420 C.ar  155  TYR155      0.0417
     58  CZ        12.6610   -8.7070    8.6110 C.ar  155  TYR155      0.1957
     59  OH        13.5690   -7.9830    7.8830 O.3   155  TYR155     -0.2866
     60  N         14.3230   -8.9660   14.9810 N.3   161  HIS161     -0.1241
     61  CA        13.7710   -7.8020   14.3060 C.3   161  HIS161      0.1621
     62  C         12.4490   -7.3580   14.9270 C.2   161  HIS161      0.2264
     63  O         12.1580   -6.1620   15.0170 O.2   161  HIS161     -0.2867
     64  CB        13.5850   -8.0930   12.8210 C.3   161  HIS161      0.0745
     65  CG        14.8730   -8.2820   12.0850 C.ar  161  HIS161      0.0817
     66  ND1       15.9540   -7.4420   12.2520 N.ar  161  HIS161     -0.2268
     67  CD2       15.2440   -9.1900   11.1530 C.ar  161  HIS161      0.1154
     68  CE1       16.9350   -7.8240   11.4540 C.ar  161  HIS161      0.1986
     69  NE2       16.5300   -8.8830   10.7750 N.ar  161  HIS161     -0.2212
     70  N         13.6140  -14.5680    3.4430 N.3   191  SER191     -0.1217
     71  CA        14.9330  -15.0570    3.0900 C.3   191  SER191      0.1889
     72  C         14.9420  -15.6460    1.6990 C.2   191  SER191      0.2288
     73  O         15.1830  -16.8350    1.5240 O.2   191  SER191     -0.2866
     74  CB        15.4040  -16.0980    4.1090 C.3   191  SER191      0.2089
     75  OG        14.3850  -17.0340    4.3940 O.3   191  SER191     -0.2183
     76  N         17.0560  -14.9330   -0.5420 N.3   193  GLY193     -0.1210
     77  CA        18.4300  -15.1770   -0.9340 C.3   193  GLY193      0.1956
     78  C         18.9340  -16.5240   -0.4400 C.2   193  GLY193      0.2611
     79  O         19.9910  -16.9980   -0.8650 O.2   193  GLY193     -0.2717
     80  N         18.1680  -17.1440    0.4540 N.am  194  HIS194     -0.1975
     81  CA        18.5210  -18.4370    1.0360 C.3   194  HIS194      0.1656
     82  C         17.5760  -19.5650    0.6390 C.2   194  HIS194      0.2291
     83  O         17.6010  -20.6380    1.2350 O.2   194  HIS194     -0.2864
     84  CB        18.5360  -18.3180    2.5560 C.3   194  HIS194      0.0771
     85  CG        19.9050  -18.1680    3.1320 C.ar  194  HIS194      0.0820
     86  ND1       21.0070  -17.8670    2.3600 N.ar  194  HIS194     -0.2267
     87  CD2       20.3540  -18.2740    4.4070 C.ar  194  HIS194      0.1154
     88  CE1       22.0770  -17.7970    3.1340 C.ar  194  HIS194      0.1986
     89  NE2       21.7070  -18.0380    4.3810 N.ar  194  HIS194     -0.2212
@<TRIPOS>BOND
     1    77    76    1
     2    77    78    1
     3    79    78    2
     4    78    80   am
     5    80    81    1
     6    82    81    1
     7    82    83    2
     8    81    84    1
     9    73    72    2
    10    72    71    1
    11    86    85   ar
    12    86    88   ar
    13    84    85    1
    14    71    70    1
    15    71    74    1
    16    85    87   ar
    17    88    89   ar
    18    26    27    1
    19    27    28    1
    20    74    75    1
    21    89    87   ar
    22     7     9   ar
    23     7     6   ar
    24    29    28    2
    25    28    30   am
    26     9    10   ar
    27     1     2    1
    28     6     5    1
    29     6     8   ar
    30    30    31    1
    31     5     2    1
    32     2     3    1
    33    10     8   ar
    34    10    12   ar
    35    33    32    2
    36     3    15   am
    37     3     4    2
    38     8    11   ar
    39    17    16    1
    40    17    18    2
    41    15    16    1
    42    12    14   ar
    43    31    32    1
    44    32    34   am
    45    16    19    1
    46    34    35    1
    47    35    36    1
    48    35    38    1
    49    59    58    1
    50    11    13   ar
    51    14    13   ar
    52    57    58   ar
    53    57    55   ar
    54    36    37    2
    55    58    56   ar
    56    38    39    1
    57    19    20    1
    58    55    53   ar
    59    20    21   ar
    60    20    22   ar
    61    21    23   ar
    62    56    54   ar
    63    23    25   ar
    64    22    24   ar
    65    53    54   ar
    66    53    52    1
    67    46    47    1
    68    46    45    1
    69    25    24   ar
    70    69    67   ar
    71    69    68   ar
    72    52    49    1
    73    67    65   ar
    74    68    66   ar
    75    45    44    1
    76    44    41    1
    77    65    66   ar
    78    65    64    1
    79    48    49    1
    80    48    42   am
    81    49    50    1
    82    40    41    1
    83    41    42    1
    84    64    61    1
    85    42    43    2
    86    51    50    2
    87    61    62    1
    88    61    60    1
    89    62    63    2
