@<TRIPOS>MOLECULE
tmp/1h6cB01.pdb
 120 113 0 0 0
SMALL
GASTEIGER

@<TRIPOS>ATOM
      1  N          9.2890   19.5200   11.1650 N.3   129  LYS129     -0.1245
      2  CA         9.7280   20.3650   12.2660 C.3   129  LYS129      0.1561
      3  C         11.2030   20.0800   12.5280 C.2   129  LYS129      0.2260
      4  O         11.6740   18.9760   12.2660 O.2   129  LYS129     -0.2867
      5  CB         8.9030   20.0620   13.5280 C.3   129  LYS129      0.0271
      6  CG         9.1120   18.6600   14.1030 C.3   129  LYS129      0.0035
      7  CD        10.4480   18.5630   14.8310 C.3   129  LYS129      0.0206
      8  CE        10.9580   17.1410   14.8850 C.3   129  LYS129      0.1093
      9  NZ        12.3820   17.1150   15.2980 N.3   129  LYS129     -0.1314
     10  N          2.9230   15.9600   14.1000 N.3   157  ARG157     -0.1245
     11  CA         2.0630   14.7900   14.1920 C.3   157  ARG157      0.1563
     12  C          1.2350   14.7430   15.4780 C.2   157  ARG157      0.2260
     13  O          0.1100   14.2400   15.4710 O.2   157  ARG157     -0.2867
     14  CB         2.9010   13.5180   14.0580 C.3   157  ARG157      0.0307
     15  CG         4.0850   13.4570   14.9990 C.3   157  ARG157      0.0489
     16  CD         4.9650   12.2660   14.6860 C.3   157  ARG157      0.2205
     17  NE         6.0860   12.1760   15.6160 N.pl3 157  ARG157     -0.0865
     18  CZ         5.9620   11.9360   16.9180 C.cat 157  ARG157      0.5346
     19  NH1        4.7580   11.7570   17.4510 N.pl3 157  ARG157      0.1354
     20  NH2        7.0390   11.8850   17.6890 N.pl3 157  ARG157      0.1354
     21  N         12.0330   15.2290   27.2400 N.3   186  ASN186     -0.1225
     22  CA        12.1540   14.5200   25.9600 C.3   186  ASN186      0.1785
     23  C         13.6320   14.2040   25.7900 C.2   186  ASN186      0.2598
     24  O         14.4560   15.1160   25.7120 O.2   186  ASN186     -0.2718
     25  CB        11.6800   15.4160   24.8070 C.3   186  ASN186      0.1169
     26  CG        10.1940   15.7290   24.8730 C.2   186  ASN186      0.2627
     27  OD1        9.3600   14.9340   24.4400 O.2   186  ASN186     -0.2716
     28  ND2        9.8590   16.8930   25.4200 N.am  186  ASN186     -0.0877
     29  N         13.9820   12.9250   25.7250 N.am  187  SER187     -0.1938
     30  CA        15.3880   12.5650   25.6150 C.3   187  SER187      0.2055
     31  C         15.6560   11.3150   24.7920 C.2   187  SER187      0.2643
     32  O         14.8000   10.4400   24.6670 O.2   187  SER187     -0.2714
     33  CB        15.9620   12.3600   27.0180 C.3   187  SER187      0.2130
     34  OG        15.4590   13.3330   27.9150 O.3   187  SER187     -0.2179
     35  N         16.8640   11.2420   24.2390 N.am  188  ASP188     -0.1971
     36  CA        17.3080   10.0980   23.4420 C.3   188  ASP188      0.1709
     37  C         18.8270   10.1890   23.3730 C.2   188  ASP188      0.2293
     38  O         19.3700   11.2740   23.1560 O.2   188  ASP188     -0.2864
     39  CB        16.7310   10.1510   22.0250 C.3   188  ASP188      0.1436
     40  CG        17.0940    8.9180   21.2010 C.2   188  ASP188      0.3671
     41  OD1       17.0590    7.7950   21.7530 O.co2 188  ASP188     -0.2456
     42  OD2       17.4080    9.0680   19.9990 O.co2 188  ASP188     -0.2456
     43  N         22.6780   16.7340   12.7940 N.3   200  ARG200     -0.1245
     44  CA        22.1060   17.3100   14.0130 C.3   200  ARG200      0.1563
     45  C         23.1950   17.8750   14.9290 C.2   200  ARG200      0.2260
     46  O         22.9280   18.7260   15.7730 O.2   200  ARG200     -0.2867
     47  CB        21.2880   16.2610   14.7810 C.3   200  ARG200      0.0307
     48  CG        19.9350   15.9120   14.1580 C.3   200  ARG200      0.0489
     49  CD        19.1000   15.0600   15.1150 C.3   200  ARG200      0.2205
     50  NE        17.7340   14.8420   14.6420 N.pl3 200  ARG200     -0.0865
     51  CZ        17.4060   14.0390   13.6340 C.cat 200  ARG200      0.5346
     52  NH1       18.3430   13.3630   12.9820 N.pl3 200  ARG200      0.1354
     53  NH2       16.1360   13.9190   13.2680 N.pl3 200  ARG200      0.1354
     54  N         15.5160   19.8300   18.2040 N.3   213  ASP213     -0.1225
     55  CA        15.1940   18.4840   17.7510 C.3   213  ASP213      0.1805
     56  C         14.0070   17.8210   18.4440 C.2   213  ASP213      0.2597
     57  O         13.0220   17.4620   17.7970 O.2   213  ASP213     -0.2718
     58  CB        16.4220   17.5830   17.8990 C.3   213  ASP213      0.1424
     59  CG        16.2740   16.2710   17.1570 C.2   213  ASP213      0.3668
     60  OD1       16.0380   16.3150   15.9370 O.co2 213  ASP213     -0.2456
     61  OD2       16.4000   15.1980   17.7850 O.co2 213  ASP213     -0.2456
     62  N         14.1020   17.6450   19.7570 N.am  214  ILE214     -0.1980
     63  CA        13.0260   16.9930   20.4890 C.3   214  ILE214      0.1595
     64  C         12.4330   17.8250   21.6160 C.2   214  ILE214      0.2287
     65  O         11.2890   17.6060   22.0170 O.2   214  ILE214     -0.2864
     66  CB        13.4940   15.6420   21.0540 C.3   214  ILE214      0.0276
     67  CG1       14.7580   15.8330   21.8940 C.3   214  ILE214      0.0022
     68  CG2       13.7360   14.6730   19.9180 C.3   214  ILE214      0.0022
     69  CD1       15.2950   14.5480   22.5000 C.3   214  ILE214      0.0001
     70  N          8.9890   19.3070   21.2870 N.3   217  TYR217     -0.1241
     71  CA         7.7390   18.6300   21.6390 C.3   217  TYR217      0.1605
     72  C          7.2010   19.1410   22.9720 C.2   217  TYR217      0.2264
     73  O          6.0220   19.4730   23.0890 O.2   217  TYR217     -0.2867
     74  CB         7.9350   17.1210   21.7340 C.3   217  TYR217      0.0534
     75  CG         8.1180   16.4510   20.4020 C.ar  217  TYR217     -0.0201
     76  CD1        7.0130   16.0340   19.6580 C.ar  217  TYR217     -0.0009
     77  CD2        9.3890   16.2560   19.8640 C.ar  217  TYR217     -0.0009
     78  CE1        7.1690   15.4420   18.4140 C.ar  217  TYR217      0.0417
     79  CE2        9.5550   15.6600   18.6110 C.ar  217  TYR217      0.0417
     80  CZ         8.4420   15.2580   17.8950 C.ar  217  TYR217      0.1957
     81  OH         8.5900   14.6690   16.6650 O.3   217  TYR217     -0.2866
     82  N         15.6380    7.0150   26.0710 N.3   275  THR275     -0.1203
     83  CA        14.2800    7.3290   25.6490 C.3   275  THR275      0.1994
     84  C         13.3790    7.8790   26.7450 C.2   275  THR275      0.2619
     85  O         13.0950    7.2020   27.7360 O.2   275  THR275     -0.2717
     86  CB        13.6240    6.0830   25.0590 C.3   275  THR275      0.1784
     87  OG1       14.4990    5.5230   24.0750 O.3   275  THR275     -0.2211
     88  CG2       12.2900    6.4270   24.4140 C.3   275  THR275      0.0376
     89  N         12.9250    9.1130   26.5480 N.am  276  THR276     -0.1938
     90  CA        12.0480    9.7720   27.5000 C.3   276  THR276      0.2028
     91  C         11.1030   10.7380   26.7970 C.2   276  THR276      0.2642
     92  O         11.5330   11.6480   26.1020 O.2   276  THR276     -0.2714
     93  CB        12.8540   10.5530   28.5520 C.3   276  THR276      0.1808
     94  OG1       13.6530    9.6420   29.3090 O.3   276  THR276     -0.2208
     95  CG2       11.9260   11.3050   29.4910 C.3   276  THR276      0.0379
     96  N          9.8080   10.5160   26.9820 N.am  277  SER277     -0.1949
     97  CA         8.7700   11.3590   26.4030 C.3   277  SER277      0.1924
     98  C          7.6660   11.3620   27.4530 C.2   277  SER277      0.2314
     99  O          6.7830   10.5000   27.4550 O.2   277  SER277     -0.2863
    100  CB         8.2630   10.7650   25.0890 C.3   277  SER277      0.2116
    101  OG         7.2860   11.6090   24.5080 O.3   277  SER277     -0.2180
    102  N          4.5240   11.4570   23.4710 N.3   294  THR294     -0.1218
    103  CA         4.5380   11.7200   22.0360 C.3   294  THR294      0.1862
    104  C          5.2310   10.6400   21.2320 C.2   294  THR294      0.2287
    105  O          5.9320   10.9380   20.2700 O.2   294  THR294     -0.2866
    106  CB         5.2550   13.0390   21.7360 C.3   294  THR294      0.1770
    107  OG1        6.6350   12.9210   22.1050 O.3   294  THR294     -0.2211
    108  CG2        4.6220   14.1770   22.5240 C.3   294  THR294      0.0375
    109  N          5.8370    7.3470   18.6710 N.3   296  TYR296     -0.1241
    110  CA         5.3310    7.0130   17.3450 C.3   296  TYR296      0.1605
    111  C          4.1500    6.0840   17.5870 C.2   296  TYR296      0.2264
    112  O          3.1280    6.1660   16.9010 O.2   296  TYR296     -0.2867
    113  CB         6.4030    6.2910   16.5180 C.3   296  TYR296      0.0534
    114  CG         7.5480    7.1750   16.0480 C.ar  296  TYR296     -0.0201
    115  CD1        7.4460    8.5630   16.0840 C.ar  296  TYR296     -0.0009
    116  CD2        8.7340    6.6140   15.5680 C.ar  296  TYR296     -0.0009
    117  CE1        8.4960    9.3750   15.6570 C.ar  296  TYR296      0.0417
    118  CE2        9.7950    7.4140   15.1380 C.ar  296  TYR296      0.0417
    119  CZ         9.6700    8.7940   15.1870 C.ar  296  TYR296      0.1957
    120  OH        10.7150    9.5980   14.7860 O.3   296  TYR296     -0.2866
@<TRIPOS>BOND
     1     1     2    1
     2     2     3    1
     3     2     5    1
     4     4     3    2
     5    43    44    1
     6    52    51    1
     7    53    51    1
     8     5     6    1
     9    51    50    2
    10    44    47    1
    11    44    45    1
    12    14    11    1
    13    14    15    1
    14    10    11    1
    15     6     7    1
    16    48    47    1
    17    48    49    1
    18    11    12    1
    19    50    49    1
    20    16    15    1
    21    16    17    1
    22   120   119    1
    23     7     8    1
    24     8     9    1
    25    45    46    2
    26   118   119   ar
    27   118   116   ar
    28   119   117   ar
    29    13    12    2
    30   116   114   ar
    31    17    18    2
    32   117   115   ar
    33    60    59   ar
    34   114   115   ar
    35   114   113    1
    36   113   110    1
    37    81    80    1
    38   112   111    2
    39    18    19    1
    40    18    20    1
    41    59    61   ar
    42    59    58    1
    43   110   111    1
    44   110   109    1
    45    55    58    1
    46    55    54    1
    47    55    56    1
    48    57    56    2
    49    80    78   ar
    50    80    79   ar
    51    78    76   ar
    52    56    62   am
    53    79    77   ar
    54    76    75   ar
    55    62    63    1
    56    77    75   ar
    57    68    66    1
    58    42    40   ar
    59   105   104    2
    60    75    74    1
    61    63    66    1
    62    63    64    1
    63    66    67    1
    64    40    41   ar
    65    40    39    1
    66   104   103    1
    67    70    71    1
    68    64    65    2
    69    71    74    1
    70    71    72    1
    71   106   103    1
    72   106   107    1
    73   106   108    1
    74    67    69    1
    75    39    36    1
    76   103   102    1
    77    72    73    2
    78    38    37    2
    79    37    36    1
    80    36    35    1
    81    87    86    1
    82    35    31   am
    83    88    86    1
    84    27    26    2
    85   101   100    1
    86    32    31    2
    87    31    30    1
    88    25    26    1
    89    25    22    1
    90    26    28   am
    91    86    83    1
    92   100    97    1
    93    30    29    1
    94    30    33    1
    95    83    82    1
    96    83    84    1
    97    24    23    2
    98    29    23   am
    99    23    22    1
   100    22    21    1
   101    92    91    2
   102    97    96    1
   103    97    98    1
   104    89    84   am
   105    89    90    1
   106    84    85    2
   107    91    96   am
   108    91    90    1
   109    33    34    1
   110    98    99    2
   111    90    93    1
   112    93    94    1
   113    93    95    1
