@<TRIPOS>MOLECULE
tmp/1h6dA01.pdb
 69 71 0 0 0
SMALL
GASTEIGER

@<TRIPOS>ATOM
      1  N         64.1330   -6.3570  -10.1590 N.3    12  VAL12      -0.1231
      2  CA        64.7250   -7.2620   -9.1800 C.3    12  VAL12       0.1678
      3  C         65.5020   -8.3760   -9.8750 C.2    12  VAL12       0.2434
      4  O         64.9600   -9.0840  -10.7200 O.2    12  VAL12      -0.2733
      5  CB        63.6540   -7.9270   -8.2910 C.3    12  VAL12       0.0265
      6  CG1       64.3270   -8.8440   -7.2830 C.3    12  VAL12       0.0020
      7  CG2       62.8110   -6.8630   -7.5890 C.3    12  VAL12       0.0020
      8  N         66.7840   -8.5470   -9.5290 N.am   13  PRO13      -0.2718
      9  CA        67.5850   -9.6040  -10.1550 C.3    13  PRO13       0.1535
     10  C         67.0000  -10.9740   -9.8200 C.2    13  PRO13       0.2599
     11  O         66.3230  -11.1380   -8.8000 O.2    13  PRO13      -0.2715
     12  CB        68.9620   -9.4100   -9.5290 C.3    13  PRO13       0.0310
     13  CG        68.9860   -7.9440   -9.1910 C.3    13  PRO13       0.0237
     14  CD        67.6100   -7.7280   -8.6280 C.3    13  PRO13       0.0939
     15  N         67.2570  -11.9580  -10.6730 N.am   14  THR14      -0.1937
     16  CA        66.7500  -13.3030  -10.4370 C.3    14  THR14       0.2028
     17  C         67.8300  -14.1470   -9.7730 C.2    14  THR14       0.2643
     18  O         67.5910  -15.2890   -9.3800 O.2    14  THR14      -0.2714
     19  CB        66.3200  -13.9760  -11.7530 C.3    14  THR14       0.1808
     20  OG1       67.4460  -14.0700  -12.6320 O.3    14  THR14      -0.2208
     21  CG2       65.2250  -13.1650  -12.4250 C.3    14  THR14       0.0379
     22  N         69.0180  -13.5650   -9.6450 N.am   15  THR15      -0.1937
     23  CA        70.1570  -14.2340   -9.0300 C.3    15  THR15       0.2013
     24  C         70.4820  -13.5690   -7.6930 C.2    15  THR15       0.2484
     25  O         70.0150  -12.4670   -7.4100 O.2    15  THR15      -0.2729
     26  CB        71.3920  -14.1560   -9.9470 C.3    15  THR15       0.1807
     27  OG1       71.6190  -12.7930  -10.3240 O.3    15  THR15      -0.2208
     28  CG2       71.1800  -14.9960  -11.2010 C.3    15  THR15       0.0379
     29  N         71.2880  -14.2330   -6.8490 N.am   16  PRO16      -0.2715
     30  CA        71.6400  -13.6540   -5.5460 C.3    16  PRO16       0.1536
     31  C         72.2190  -12.2540   -5.6880 C.2    16  PRO16       0.2598
     32  O         73.2680  -12.0740   -6.3100 O.2    16  PRO16      -0.2715
     33  CB        72.6590  -14.6480   -4.9970 C.3    16  PRO16       0.0310
     34  CG        72.1910  -15.9520   -5.5810 C.3    16  PRO16       0.0237
     35  CD        71.8920  -15.5660   -7.0110 C.3    16  PRO16       0.0939
     36  N         71.5410  -11.2660   -5.1090 N.am   17  ALA17      -0.1964
     37  CA        72.0060   -9.8860   -5.1920 C.3    17  ALA17       0.1728
     38  C         71.6390   -9.0530   -3.9690 C.2    17  ALA17       0.2617
     39  O         70.5790   -9.2380   -3.3710 O.2    17  ALA17      -0.2715
     40  CB        71.4470   -9.2290   -6.4490 C.3    17  ALA17       0.0334
     41  N         72.5240   -8.1280   -3.6110 N.am   18  GLY18      -0.1940
     42  CA        72.2780   -7.2670   -2.4730 C.3    18  GLY18       0.2014
     43  C         71.0750   -6.3760   -2.7030 C.2    18  GLY18       0.2639
     44  O         70.7870   -5.9770   -3.8310 O.2    18  GLY18      -0.2714
     45  N         70.3590   -6.0670   -1.6290 N.am   19  ARG19      -0.1963
     46  CA        69.1820   -5.2210   -1.7200 C.3    19  ARG19       0.1714
     47  C         69.3020   -4.0600   -0.7420 C.2    19  ARG19       0.2458
     48  O         70.2140   -4.0280    0.0820 O.2    19  ARG19      -0.2730
     49  CB        67.9260   -6.0500   -1.4370 C.3    19  ARG19       0.0347
     50  CG        67.6290   -7.0660   -2.5340 C.3    19  ARG19       0.0492
     51  CD        67.0500   -6.3960   -3.7850 C.3    19  ARG19       0.2205
     52  NE        65.6640   -5.9870   -3.5800 N.pl3  19  ARG19      -0.0865
     53  CZ        64.9060   -5.3720   -4.4880 C.cat  19  ARG19       0.5346
     54  NH1       65.4000   -5.0720   -5.6830 N.pl3  19  ARG19       0.1354
     55  NH2       63.6580   -5.0490   -4.1960 N.pl3  19  ARG19       0.1354
     56  N         68.3940   -3.0820   -0.8350 N.am   20  PRO20      -0.2727
     57  CA        68.4230   -1.9210    0.0560 C.3    20  PRO20       0.1402
     58  C         67.9630   -2.2120    1.4800 C.2    20  PRO20       0.2269
     59  O         67.4820   -3.3080    1.7790 O.2    20  PRO20      -0.2865
     60  CB        67.5020   -0.9300   -0.6460 C.3    20  PRO20       0.0296
     61  CG        66.5040   -1.8170   -1.2940 C.3    20  PRO20       0.0237
     62  CD        67.3680   -2.9110   -1.8790 C.3    20  PRO20       0.0939
     63  N         65.6320   -2.4720    4.3900 N.3    22  PRO22      -0.2116
     64  CA        64.1880   -2.7100    4.3180 C.3    22  PRO22       0.1372
     65  C         63.3220   -1.7090    5.0620 C.2    22  PRO22       0.2244
     66  O         63.8150   -0.8920    5.8330 O.2    22  PRO22      -0.2868
     67  CB        64.0490   -4.1090    4.9020 C.3    22  PRO22       0.0268
     68  CG        65.0850   -4.0970    5.9800 C.3    22  PRO22       0.0207
     69  CD        66.2790   -3.4370    5.2970 C.3    22  PRO22       0.0892
@<TRIPOS>BOND
     1    20    19    1
     2    21    19    1
     3    19    16    1
     4    28    26    1
     5     4     3    2
     6    15    16    1
     7    15    10   am
     8    16    17    1
     9    27    26    1
    10     1     2    1
    11     9    10    1
    12     9    12    1
    13     9     8    1
    14    26    23    1
    15     3     8   am
    16     3     2    1
    17    10    11    2
    18    17    22   am
    19    17    18    2
    20    22    23    1
    21    12    13    1
    22     8    14    1
    23    13    14    1
    24     2     5    1
    25    23    24    1
    26     5     7    1
    27     5     6    1
    28    24    25    2
    29    24    29   am
    30    35    29    1
    31    35    34    1
    32    29    30    1
    33    40    37    1
    34    32    31    2
    35    31    30    1
    36    31    36   am
    37    54    53    1
    38    34    33    1
    39    30    33    1
    40    37    36    1
    41    37    38    1
    42    53    55    1
    43    53    52    2
    44    38    41   am
    45    38    39    2
    46    44    43    2
    47    51    52    1
    48    51    50    1
    49    41    42    1
    50    43    42    1
    51    43    45   am
    52    50    49    1
    53    62    61    1
    54    62    56    1
    55    46    45    1
    56    46    49    1
    57    46    47    1
    58    61    60    1
    59    56    47   am
    60    56    57    1
    61    47    48    2
    62    60    57    1
    63    57    58    1
    64    58    59    2
    65    64    63    1
    66    64    67    1
    67    64    65    1
    68    63    69    1
    69    67    68    1
    70    65    66    2
    71    69    68    1
