@<TRIPOS>MOLECULE
tmp/1h6eA00.pdb
 212 210 0 0 0
SMALL
GASTEIGER

@<TRIPOS>ATOM
      1  N         56.9940   -4.4700   -5.1080 N.3     8  LEU8       -0.1231
      2  CA        56.6110   -3.1990   -5.6870 C.3     8  LEU8        0.1693
      3  C         56.7780   -2.2050   -4.5530 C.2     8  LEU8        0.2592
      4  O         56.6150   -2.5470   -3.3870 O.2     8  LEU8       -0.2718
      5  CB        55.1620   -3.2410   -6.1940 C.3     8  LEU8        0.0284
      6  CG        54.0440   -3.9400   -5.4050 C.3     8  LEU8        0.0019
      7  CD1       53.7880   -3.2680   -4.0650 C.3     8  LEU8        0.0001
      8  CD2       52.7850   -3.9100   -6.2480 C.3     8  LEU8        0.0001
      9  N         57.1400   -0.9780   -4.8780 N.am    9  PHE9       -0.1962
     10  CA        57.3330    0.0030   -3.8340 C.3     9  PHE9        0.1771
     11  C         56.5670    1.2660   -4.1600 C.2     9  PHE9        0.2619
     12  O         56.7540    1.8600   -5.2220 O.2     9  PHE9       -0.2715
     13  CB        58.8230    0.3160   -3.6850 C.3     9  PHE9        0.0574
     14  CG        59.6720   -0.8800   -3.3410 C.ar    9  PHE9       -0.0200
     15  CD1       59.6710   -2.0090   -4.1430 C.ar    9  PHE9       -0.0042
     16  CD2       60.5010   -0.8600   -2.2300 C.ar    9  PHE9       -0.0042
     17  CE1       60.4790   -3.0940   -3.8460 C.ar    9  PHE9       -0.0003
     18  CE2       61.3140   -1.9450   -1.9260 C.ar    9  PHE9       -0.0003
     19  CZ        61.3030   -3.0620   -2.7370 C.ar    9  PHE9       -0.0000
     20  N         55.6910    1.6700   -3.2490 N.am   10  LEU10      -0.1963
     21  CA        54.9190    2.8780   -3.4560 C.3    10  LEU10       0.1728
     22  C         55.5790    4.0750   -2.8140 C.2    10  LEU10       0.2616
     23  O         55.8850    4.0670   -1.6240 O.2    10  LEU10      -0.2715
     24  CB        53.5170    2.7280   -2.8950 C.3    10  LEU10       0.0311
     25  CG        52.5240    2.0660   -3.8360 C.3    10  LEU10       0.0022
     26  CD1       51.1310    2.2790   -3.2780 C.3    10  LEU10       0.0001
     27  CD2       52.6290    2.6680   -5.2260 C.3    10  LEU10       0.0001
     28  N         55.7960    5.1080   -3.6160 N.am   11  ASP11      -0.1971
     29  CA        56.4120    6.3310   -3.1390 C.3    11  ASP11       0.1709
     30  C         55.3950    7.4730   -3.0860 C.2    11  ASP11       0.2293
     31  O         54.8490    7.8790   -4.1140 O.2    11  ASP11      -0.2864
     32  CB        57.5790    6.7290   -4.0570 C.3    11  ASP11       0.1436
     33  CG        58.9120    6.1250   -3.6260 C.2    11  ASP11       0.3671
     34  OD1       58.9540    5.4580   -2.5720 O.co2  11  ASP11      -0.2456
     35  OD2       59.9190    6.3280   -4.3420 O.co2  11  ASP11      -0.2456
     36  N         57.3960    2.0350   -7.9320 N.3    38  LYS38      -0.1245
     37  CA        58.4830    1.2420   -8.5050 C.3    38  LYS38       0.1561
     38  C         58.1110   -0.2350   -8.3640 C.2    38  LYS38       0.2260
     39  O         58.0660   -0.7690   -7.2580 O.2    38  LYS38      -0.2867
     40  CB        59.7980    1.5430   -7.7800 C.3    38  LYS38       0.0271
     41  CG        60.3370    2.9450   -8.0420 C.3    38  LYS38       0.0035
     42  CD        61.7310    3.1200   -7.4600 C.3    38  LYS38       0.0206
     43  CE        61.7190    3.3040   -5.9480 C.3    38  LYS38       0.1093
     44  NZ        61.3020    4.6800   -5.5480 N.3    38  LYS38      -0.1314
     45  N         60.6400   10.7210   13.5150 N.3   108  LEU108     -0.1245
     46  CA        61.7780   11.6290   13.5920 C.3   108  LEU108      0.1561
     47  C         61.9990   12.4720   12.3490 C.2   108  LEU108      0.2260
     48  O         62.3820   11.9540   11.3010 O.2   108  LEU108     -0.2867
     49  CB        63.0530   10.8420   13.8880 C.3   108  LEU108      0.0270
     50  CG        63.0460   10.0540   15.1980 C.3   108  LEU108      0.0019
     51  CD1       64.4050    9.3920   15.4090 C.3   108  LEU108      0.0001
     52  CD2       62.7150   10.9920   16.3530 C.3   108  LEU108      0.0001
     53  N         64.0360   14.9110   10.1320 N.3   110  GLN110     -0.1245
     54  CA        65.4660   15.1480    9.9710 C.3   110  GLN110      0.1566
     55  C         65.8170   16.1290    8.8740 C.2   110  GLN110      0.2260
     56  O         64.9860   16.4480    8.0220 O.2   110  GLN110     -0.2867
     57  CB        66.1750   13.8320    9.7060 C.3   110  GLN110      0.0367
     58  CG        65.5060   13.0130    8.6450 C.3   110  GLN110      0.0905
     59  CD        66.1530   11.6720    8.4960 C.2   110  GLN110      0.2608
     60  OE1       66.3880   10.9740    9.4830 O.2   110  GLN110     -0.2717
     61  NE2       66.4440   11.2910    7.2600 N.am  110  GLN110     -0.0878
     62  N         68.4530   15.7540   13.8540 N.3   149  ARG149     -0.1245
     63  CA        67.1680   15.0610   13.8420 C.3   149  ARG149      0.1563
     64  C         66.3690   15.5310   15.0370 C.2   149  ARG149      0.2260
     65  O         66.9460   15.8290   16.0750 O.2   149  ARG149     -0.2867
     66  CB        67.3810   13.5500   13.9320 C.3   149  ARG149      0.0307
     67  CG        68.3120   13.0070   12.8570 C.3   149  ARG149      0.0489
     68  CD        68.3420   11.4860   12.8150 C.3   149  ARG149      0.2205
     69  NE        69.1710   11.0030   11.7140 N.pl3 149  ARG149     -0.0865
     70  CZ        69.2600    9.7290   11.3520 C.cat 149  ARG149      0.5346
     71  NH1       70.0420    9.3800   10.3380 N.pl3 149  ARG149      0.1354
     72  NH2       68.5630    8.8040   12.0020 N.pl3 149  ARG149      0.1354
     73  N         62.6880   17.4270    6.3170 N.3   175  GLU175     -0.1231
     74  CA        62.2320   16.1940    5.6920 C.3   175  GLU175      0.1699
     75  C         61.4640   15.5030    6.7990 C.2   175  GLU175      0.2592
     76  O         61.8010   15.6800    7.9720 O.2   175  GLU175     -0.2718
     77  CB        63.4070   15.3070    5.2650 C.3   175  GLU175      0.0402
     78  CG        64.2970   15.8880    4.1730 C.3   175  GLU175      0.1161
     79  CD        65.1060   14.8260    3.4330 C.2   175  GLU175      0.3649
     80  OE1       65.7140   13.9580    4.0950 O.co2 175  GLU175     -0.2457
     81  OE2       65.1380   14.8650    2.1830 O.co2 175  GLU175     -0.2457
     82  N         60.4310   14.7420    6.4340 N.am  176  VAL176     -0.1966
     83  CA        59.6130   14.0010    7.4020 C.3   176  VAL176      0.1712
     84  C         59.3490   12.5590    6.9400 C.2   176  VAL176      0.2458
     85  O         59.6660   12.1930    5.8120 O.2   176  VAL176     -0.2730
     86  CB        58.2550   14.6870    7.6300 C.3   176  VAL176      0.0289
     87  CG1       58.3990   15.8310    8.6080 C.3   176  VAL176      0.0023
     88  CG2       57.7180   15.1770    6.3140 C.3   176  VAL176      0.0023
     89  N         58.7970   11.7120    7.8230 N.am  177  PRO177     -0.2727
     90  CA        58.5060   10.3240    7.4580 C.3   177  PRO177      0.1402
     91  C         57.0590   10.1640    7.0020 C.2   177  PRO177      0.2269
     92  O         56.7050    9.1900    6.3390 O.2   177  PRO177     -0.2865
     93  CB        58.7670    9.5800    8.7550 C.3   177  PRO177      0.0296
     94  CG        58.2320   10.5230    9.7580 C.3   177  PRO177      0.0237
     95  CD        58.7940   11.8610    9.2890 C.3   177  PRO177      0.0939
     96  N         48.1670    5.2790    1.6130 N.3   185  VAL185     -0.1231
     97  CA        47.9130    4.1920    0.6830 C.3   185  VAL185      0.1692
     98  C         47.1800    3.1000    1.4350 C.2   185  VAL185      0.2592
     99  O         47.7270    2.5010    2.3550 O.2   185  VAL185     -0.2718
    100  CB        49.2160    3.6250    0.1000 C.3   185  VAL185      0.0266
    101  CG1       48.9000    2.5680   -0.9190 C.3   185  VAL185      0.0020
    102  CG2       50.0090    4.7240   -0.5570 C.3   185  VAL185      0.0020
    103  N         45.9290    2.8680    1.0460 N.am  186  ARG186     -0.1966
    104  CA        45.0850    1.8580    1.6710 C.3   186  ARG186      0.1729
    105  C         45.3960    0.4740    1.1340 C.2   186  ARG186      0.2616
    106  O         45.6660   -0.4530    1.9040 O.2   186  ARG186     -0.2715
    107  CB        43.6020    2.1590    1.4240 C.3   186  ARG186      0.0348
    108  CG        43.0220    3.3160    2.2280 C.3   186  ARG186      0.0492
    109  CD        41.6930    2.9110    2.8540 C.3   186  ARG186      0.2205
    110  NE        40.8000    2.2950    1.8700 N.pl3 186  ARG186     -0.0865
    111  CZ        39.6620    1.6690    2.1660 C.cat 186  ARG186      0.5346
    112  NH1       39.2640    1.5680    3.4300 N.pl3 186  ARG186      0.1354
    113  NH2       38.9220    1.1410    1.1950 N.pl3 186  ARG186      0.1354
    114  N         45.3510    0.3330   -0.1900 N.am  187  TYR187     -0.1960
    115  CA        45.6210   -0.9560   -0.8200 C.3   187  TYR187      0.1771
    116  C         46.1400   -0.8620   -2.2580 C.2   187  TYR187      0.2619
    117  O         45.9980    0.1660   -2.9300 O.2   187  TYR187     -0.2715
    118  CB        44.3510   -1.8240   -0.7860 C.3   187  TYR187      0.0574
    119  CG        43.2400   -1.3460   -1.6980 C.ar  187  TYR187     -0.0198
    120  CD1       43.1210   -1.8350   -2.9990 C.ar  187  TYR187     -0.0009
    121  CD2       42.3270   -0.3790   -1.2720 C.ar  187  TYR187     -0.0009
    122  CE1       42.1160   -1.3700   -3.8600 C.ar  187  TYR187      0.0417
    123  CE2       41.3170    0.0950   -2.1250 C.ar  187  TYR187      0.0417
    124  CZ        41.2190   -0.4050   -3.4180 C.ar  187  TYR187      0.1957
    125  OH        40.2360    0.0610   -4.2690 O.3   187  TYR187     -0.2866
    126  N         46.7560   -1.9510   -2.7090 N.am  188  LEU188     -0.1977
    127  CA        47.2830   -2.0500   -4.0630 C.3   188  LEU188      0.1596
    128  C         47.1190   -3.5030   -4.4870 C.2   188  LEU188      0.2287
    129  O         48.0180   -4.3180   -4.3010 O.2   188  LEU188     -0.2864
    130  CB        48.7600   -1.6560   -4.1040 C.3   188  LEU188      0.0297
    131  CG        49.3580   -1.2500   -5.4570 C.3   188  LEU188      0.0022
    132  CD1       50.7900   -0.8460   -5.2420 C.3   188  LEU188      0.0001
    133  CD2       49.2890   -2.3800   -6.4540 C.3   188  LEU188      0.0001
    134  N         47.5990  -11.3850   -2.4350 N.3   200  HIS200     -0.1241
    135  CA        48.1160  -11.5100   -1.0840 C.3   200  HIS200      0.1621
    136  C         49.2560  -12.5110   -1.1590 C.2   200  HIS200      0.2264
    137  O         49.5130  -13.2700   -0.2210 O.2   200  HIS200     -0.2867
    138  CB        47.0400  -11.9980   -0.0740 C.3   200  HIS200      0.0745
    139  CG        45.8480  -11.1570    0.0520 C.ar  200  HIS200      0.0817
    140  ND1       45.8430   -9.9010    0.6190 N.ar  200  HIS200     -0.2268
    141  CD2       44.5930  -11.3670   -0.4670 C.ar  200  HIS200      0.1154
    142  CE1       44.6190   -9.4040    0.4950 C.ar  200  HIS200      0.1986
    143  NE2       43.8520  -10.2700   -0.0970 N.ar  200  HIS200     -0.2212
    144  N         54.7020   -8.9180   -2.2970 N.3   203  ILE203     -0.1231
    145  CA        55.2910   -8.1980   -1.1840 C.3   203  ILE203      0.1692
    146  C         55.1100   -6.7300   -1.5060 C.2   203  ILE203      0.2592
    147  O         55.6820   -6.2420   -2.4760 O.2   203  ILE203     -0.2718
    148  CB        56.7960   -8.4480   -1.0600 C.3   203  ILE203      0.0266
    149  CG1       57.1330   -9.8950   -1.3920 C.3   203  ILE203      0.0019
    150  CG2       57.2300   -8.1740    0.3530 C.3   203  ILE203      0.0020
    151  CD1       58.6200  -10.1920   -1.3800 C.3   203  ILE203      0.0001
    152  N         54.3180   -6.0270   -0.7050 N.am  204  LYS204     -0.1966
    153  CA        54.0890   -4.6120   -0.9380 C.3   204  LYS204      0.1728
    154  C         54.8710   -3.7160    0.0220 C.2   204  LYS204      0.2616
    155  O         54.9920   -4.0070    1.2100 O.2   204  LYS204     -0.2715
    156  CB        52.6030   -4.2930   -0.8290 C.3   204  LYS204      0.0311
    157  CG        51.7440   -4.8520   -1.9490 C.3   204  LYS204      0.0038
    158  CD        51.6190   -6.3610   -1.8740 C.3   204  LYS204      0.0206
    159  CE        50.3130   -6.8450   -2.5090 C.3   204  LYS204      0.1093
    160  NZ        49.1000   -6.3990   -1.7570 N.3   204  LYS204     -0.1314
    161  N         55.3980   -2.6180   -0.5130 N.am  205  TRP205     -0.1960
    162  CA        56.1690   -1.6550    0.2630 C.3   205  TRP205      0.1771
    163  C         55.6720   -0.2380   -0.0190 C.2   205  TRP205      0.2620
    164  O         55.4120    0.1180   -1.1740 O.2   205  TRP205     -0.2715
    165  CB        57.6450   -1.7030   -0.1270 C.3   205  TRP205      0.0590
    166  CG        58.3510   -3.0050    0.0730 C.ar  205  TRP205      0.0006
    167  CD1       58.8080   -3.8440   -0.8990 C.ar  205  TRP205      0.0946
    168  CD2       58.7690   -3.5710    1.3160 C.ar  205  TRP205      0.0152
    169  NE1       59.4940   -4.8920   -0.3390 N.ar  205  TRP205     -0.2442
    170  CE2       59.4830   -4.7470    1.0220 C.ar  205  TRP205      0.0810
    171  CE3       58.6130   -3.1950    2.6510 C.ar  205  TRP205      0.0012
    172  CZ2       60.0370   -5.5470    2.0100 C.ar  205  TRP205      0.0191
    173  CZ3       59.1660   -3.9930    3.6320 C.ar  205  TRP205      0.0001
    174  CH2       59.8690   -5.1550    3.3060 C.ar  205  TRP205      0.0015
    175  N         55.5530    0.5750    1.0270 N.am  206  VAL206     -0.1963
    176  CA        55.1190    1.9550    0.8530 C.3   206  VAL206      0.1727
    177  C         55.8270    2.8700    1.8370 C.2   206  VAL206      0.2616
    178  O         55.9880    2.5350    3.0160 O.2   206  VAL206     -0.2715
    179  CB        53.6100    2.1140    1.0560 C.3   206  VAL206      0.0290
    180  CG1       53.2910    2.1780    2.5350 C.3   206  VAL206      0.0023
    181  CG2       53.1210    3.3590    0.3460 C.3   206  VAL206      0.0023
    182  N         56.2410    4.0320    1.3380 N.am  207  ARG207     -0.1963
    183  CA        56.9350    5.0250    2.1480 C.3   207  ARG207      0.1729
    184  C         56.4060    6.4450    1.9530 C.2   207  ARG207      0.2616
    185  O         56.0170    6.8360    0.8480 O.2   207  ARG207     -0.2715
    186  CB        58.4350    5.0060    1.8390 C.3   207  ARG207      0.0348
    187  CG        58.8460    5.4980    0.4400 C.3   207  ARG207      0.0492
    188  CD        60.3460    5.8490    0.4350 C.3   207  ARG207      0.2205
    189  NE        60.9320    5.9220   -0.8960 N.pl3 207  ARG207     -0.0865
    190  CZ        62.2220    6.1300   -1.1120 C.cat 207  ARG207      0.5346
    191  NH1       63.0390    6.2890   -0.0820 N.pl3 207  ARG207      0.1354
    192  NH2       62.6910    6.1610   -2.3480 N.pl3 207  ARG207      0.1354
    193  N         56.4050    7.2180    3.0320 N.am  208  TYR208     -0.1960
    194  CA        55.9410    8.5900    2.9560 C.3   208  TYR208      0.1771
    195  C         57.0920    9.5660    3.1390 C.2   208  TYR208      0.2619
    196  O         57.8140    9.5100    4.1350 O.2   208  TYR208     -0.2715
    197  CB        54.8520    8.8190    3.9960 C.3   208  TYR208      0.0574
    198  CG        53.6160    8.0140    3.6870 C.ar  208  TYR208     -0.0198
    199  CD1       52.8590    7.4390    4.7020 C.ar  208  TYR208     -0.0009
    200  CD2       53.2320    7.7820    2.3670 C.ar  208  TYR208     -0.0009
    201  CE1       51.7530    6.6400    4.4090 C.ar  208  TYR208      0.0417
    202  CE2       52.1330    6.9920    2.0630 C.ar  208  TYR208      0.0417
    203  CZ        51.4000    6.4180    3.0840 C.ar  208  TYR208      0.1957
    204  OH        50.3450    5.5840    2.7820 O.3   208  TYR208     -0.2866
    205  N         57.2600   10.4490    2.1560 N.am  209  ILE209     -0.1977
    206  CA        58.3260   11.4440    2.1710 C.3   209  ILE209      0.1596
    207  C         57.8420   12.8690    1.9190 C.2   209  ILE209      0.2287
    208  O         57.5200   13.2430    0.7880 O.2   209  ILE209     -0.2864
    209  CB        59.4090   11.0860    1.1420 C.3   209  ILE209      0.0276
    210  CG1       60.2000    9.8910    1.6560 C.3   209  ILE209      0.0022
    211  CG2       60.3340   12.2610    0.9050 C.3   209  ILE209      0.0022
    212  CD1       61.2810    9.4430    0.7390 C.3   209  ILE209      0.0001
@<TRIPOS>BOND
     1    37    38    1
     2    37    36    1
     3    37    40    1
     4    38    39    2
     5    41    40    1
     6    41    42    1
     7    42    43    1
     8   133   131    1
     9     8     6    1
    10     5     2    1
    11     5     6    1
    12    43    44    1
    13     2     1    1
    14     2     3    1
    15   131   132    1
    16   131   130    1
    17     6     7    1
    18    27    25    1
    19    12    11    2
    20     9     3   am
    21     9    10    1
    22     3     4    2
    23   128   129    2
    24   128   127    1
    25    35    33   ar
    26   125   124    1
    27    11    10    1
    28    11    20   am
    29    15    17   ar
    30    15    14   ar
    31    31    30    2
    32   130   127    1
    33   127   126    1
    34    32    33    1
    35    32    29    1
    36   122   124   ar
    37   122   120   ar
    38    17    19   ar
    39    25    26    1
    40    25    24    1
    41    10    13    1
    42    13    14    1
    43    33    34   ar
    44    28    29    1
    45    28    22   am
    46    21    20    1
    47    21    24    1
    48    21    22    1
    49   124   123   ar
    50    14    16   ar
    51    29    30    1
    52   120   119   ar
    53   117   116    2
    54    22    23    2
    55    19    18   ar
    56   126   116   am
    57   159   158    1
    58   159   160    1
    59   147   146    2
    60   134   135    1
    61   192   190    1
    62   144   145    1
    63   116   115    1
    64    16    18   ar
    65   123   121   ar
    66   157   158    1
    67   157   156    1
    68   119   121   ar
    69   119   118    1
    70   146   145    1
    71   146   152   am
    72   149   151    1
    73   149   148    1
    74   145   148    1
    75   164   163    2
    76   136   135    1
    77   136   137    2
    78   190   189    2
    79   190   191    1
    80   135   138    1
    81   148   150    1
    82   153   156    1
    83   153   152    1
    84   153   154    1
    85   101   100    1
    86   167   169   ar
    87   167   166   ar
    88   189   188    1
    89   115   118    1
    90   115   114    1
    91   102   100    1
    92   161   154   am
    93   161   162    1
    94   141   143   ar
    95   141   139   ar
    96   169   170   ar
    97   114   105   am
    98   165   166    1
    99   165   162    1
   100   143   142   ar
   101   138   139    1
   102   163   162    1
   103   163   175   am
   104   154   155    2
   105   139   140   ar
   106   166   168   ar
   107   100    97    1
   108   181   179    1
   109   188   187    1
   110   187   186    1
   111   142   140   ar
   112    97    98    1
   113    97    96    1
   114   212   210    1
   115   208   207    2
   116   185   184    2
   117   176   175    1
   118   176   179    1
   119   176   177    1
   120   211   209    1
   121   170   168   ar
   122   170   172   ar
   123   103    98   am
   124   103   104    1
   125   179   180    1
   126   105   104    1
   127   105   106    2
   128   209   210    1
   129   209   206    1
   130   113   111    1
   131   168   171   ar
   132   182   177   am
   133   182   183    1
   134   107   104    1
   135   107   108    1
   136    98    99    2
   137   177   178    2
   138   186   183    1
   139   110   111    2
   140   110   109    1
   141   207   206    1
   142   184   183    1
   143   184   193   am
   144   172   174   ar
   145   202   200   ar
   146   202   203   ar
   147   205   206    1
   148   205   195   am
   149   111   112    1
   150    81    79   ar
   151   108   109    1
   152   200   198   ar
   153   171   173   ar
   154   204   203    1
   155   194   193    1
   156   194   195    1
   157   194   197    1
   158   203   201   ar
   159   195   196    2
   160   174   173   ar
   161    79    80   ar
   162    79    78    1
   163   198   197    1
   164   198   199   ar
   165    78    77    1
   166   201   199   ar
   167    77    74    1
   168    74    73    1
   169    74    75    1
   170    85    84    2
   171    88    86    1
   172    92    91    2
   173    82    75   am
   174    82    83    1
   175    75    76    2
   176    84    83    1
   177    84    89   am
   178    91    90    1
   179    61    59   am
   180    83    86    1
   181    90    89    1
   182    90    93    1
   183    86    87    1
   184    89    95    1
   185    56    55    2
   186    59    58    1
   187    59    60    2
   188    58    57    1
   189    93    94    1
   190    55    54    1
   191    95    94    1
   192    57    54    1
   193    54    53    1
   194    71    70    1
   195    48    47    2
   196    70    69    2
   197    70    72    1
   198    69    68    1
   199    47    46    1
   200    68    67    1
   201    67    66    1
   202    45    46    1
   203    46    49    1
   204    63    62    1
   205    63    66    1
   206    63    64    1
   207    49    50    1
   208    64    65    2
   209    50    51    1
   210    50    52    1
