@<TRIPOS>MOLECULE
tmp/1h6hA00.pdb
 112 111 0 0 0
SMALL
GASTEIGER

@<TRIPOS>ATOM
      1  N         17.1530   13.9930   12.1160 N.3    37  HIS37      -0.1226
      2  CA        16.2600   13.8100   10.9660 C.3    37  HIS37       0.1752
      3  C         16.2020   12.3140   10.7200 C.2    37  HIS37       0.2596
      4  O         16.9950   11.5610   11.2900 O.2    37  HIS37      -0.2718
      5  CB        16.7740   14.5300    9.7060 C.3    37  HIS37       0.0759
      6  CG        18.0420   13.9630    9.1430 C.ar   37  HIS37       0.0818
      7  ND1       19.2930   14.3440    9.5860 N.ar   37  HIS37      -0.2268
      8  CD2       18.2530   13.0790    8.1370 C.ar   37  HIS37       0.1154
      9  CE1       20.2190   13.7240    8.8720 C.ar   37  HIS37       0.1986
     10  NE2       19.6140   12.9490    7.9860 N.ar   37  HIS37      -0.2212
     11  N         15.2680   11.8780    9.8780 N.am   38  PHE38      -0.1976
     12  CA        15.1300   10.4600    9.5880 C.3    38  PHE38       0.1639
     13  C         15.4290   10.1210    8.1390 C.2    38  PHE38       0.2290
     14  O         15.1340   10.9120    7.2360 O.2    38  PHE38      -0.2864
     15  CB        13.7130    9.9830    9.9410 C.3    38  PHE38       0.0560
     16  CG        13.5020    9.7930   11.4140 C.ar   38  PHE38      -0.0200
     17  CD1       13.3260   10.8960   12.2530 C.ar   38  PHE38      -0.0042
     18  CD2       13.5620    8.5210   11.9730 C.ar   38  PHE38      -0.0042
     19  CE1       13.2180   10.7300   13.6420 C.ar   38  PHE38      -0.0003
     20  CE2       13.4580    8.3370   13.3640 C.ar   38  PHE38      -0.0003
     21  CZ        13.2880    9.4480   14.1950 C.ar   38  PHE38      -0.0000
     22  N         16.4060   10.7400    2.5160 N.3    57  ARG57      -0.1231
     23  CA        15.5990   11.4800    3.4900 C.3    57  ARG57       0.1694
     24  C         14.4760   12.2510    2.7510 C.2    57  ARG57       0.2592
     25  O         14.5510   12.4570    1.5300 O.2    57  ARG57      -0.2718
     26  CB        16.4860   12.4390    4.3170 C.3    57  ARG57       0.0321
     27  CG        17.2210   13.5200    3.4610 C.3    57  ARG57       0.0489
     28  CD        18.2000   14.3680    4.3410 C.3    57  ARG57       0.2205
     29  NE        17.5140   15.2130    5.3220 N.pl3  57  ARG57      -0.0865
     30  CZ        18.1580   15.9510    6.2320 C.cat  57  ARG57       0.5346
     31  NH1       19.4870   15.9250    6.2780 N.pl3  57  ARG57       0.1354
     32  NH2       17.4740   16.7310    7.0710 N.pl3  57  ARG57       0.1354
     33  N         13.4260   12.6450    3.4680 N.am   58  TYR58      -0.1962
     34  CA        12.3040   13.3340    2.8210 C.3    58  TYR58       0.1771
     35  C         12.6880   14.5630    1.9890 C.2    58  TYR58       0.2619
     36  O         12.1730   14.7360    0.8830 O.2    58  TYR58      -0.2715
     37  CB        11.2300   13.7260    3.8470 C.3    58  TYR58       0.0574
     38  CG        10.0430   14.4880    3.2350 C.ar   58  TYR58      -0.0198
     39  CD1       10.0990   15.8750    3.0870 C.ar   58  TYR58      -0.0009
     40  CD2        8.9060   13.8300    2.7790 C.ar   58  TYR58      -0.0009
     41  CE1        9.0430   16.5940    2.4910 C.ar   58  TYR58       0.0417
     42  CE2        7.8350   14.5430    2.1770 C.ar   58  TYR58       0.0417
     43  CZ         7.9200   15.9180    2.0440 C.ar   58  TYR58       0.1957
     44  OH         6.8780   16.6230    1.4770 O.3    58  TYR58      -0.2866
     45  N         13.5980   15.4070    2.4650 N.am   59  ARG59      -0.1977
     46  CA        13.8870   16.5900    1.6370 C.3    59  ARG59       0.1597
     47  C         14.5100   16.2560    0.2700 C.2    59  ARG59       0.2287
     48  O         14.4380   17.0710   -0.6520 O.2    59  ARG59      -0.2864
     49  CB        14.7260   17.6430    2.4130 C.3    59  ARG59       0.0334
     50  CG        16.1660   17.3040    2.7690 C.3    59  ARG59       0.0492
     51  CD        16.8430   18.4730    3.6260 C.3    59  ARG59       0.2205
     52  NE        16.8960   19.7120    2.8390 N.pl3  59  ARG59      -0.0865
     53  CZ        16.0390   20.7250    2.9870 C.cat  59  ARG59       0.5346
     54  NH1       15.0950   20.6780    3.9180 N.pl3  59  ARG59       0.1354
     55  NH2       16.0440   21.7320    2.1170 N.pl3  59  ARG59       0.1354
     56  N         11.4210   15.6390   -1.8520 N.3    62  HIS62      -0.1241
     57  CA        10.7300   16.8880   -2.2010 C.3    62  HIS62       0.1621
     58  C         11.4810   17.6380   -3.3010 C.2    62  HIS62       0.2264
     59  O         10.8420   18.1800   -4.1940 O.2    62  HIS62      -0.2867
     60  CB        10.5380   17.7880   -0.9570 C.3    62  HIS62       0.0745
     61  CG         9.4910   18.8490   -1.1330 C.ar   62  HIS62       0.0817
     62  ND1        9.7180   20.0020   -1.8530 N.ar   62  HIS62      -0.2268
     63  CD2        8.1950   18.9020   -0.7380 C.ar   62  HIS62       0.1154
     64  CE1        8.6080   20.7230   -1.8930 C.ar   62  HIS62       0.1986
     65  NE2        7.6670   20.0790   -1.2260 N.ar   62  HIS62      -0.2212
     66  N          4.7800   18.5160    3.1930 N.3    91  LYS91      -0.1231
     67  CA         5.6720   18.9200    4.2720 C.3    91  LYS91       0.1693
     68  C          4.8630   19.0370    5.5480 C.2    91  LYS91       0.2592
     69  O          3.6640   19.3230    5.5050 O.2    91  LYS91      -0.2718
     70  CB         6.3050   20.2890    3.9760 C.3    91  LYS91       0.0285
     71  CG         7.1920   20.3450    2.7360 C.3    91  LYS91       0.0035
     72  CD         7.9920   21.6840    2.7010 C.3    91  LYS91       0.0206
     73  CE         8.9700   21.7410    1.5270 C.3    91  LYS91       0.1093
     74  NZ         9.5760   23.1360    1.3810 N.3    91  LYS91      -0.1314
     75  N          5.5260   18.8100    6.6800 N.am   92  VAL92      -0.1966
     76  CA         4.9110   18.9240    7.9950 C.3    92  VAL92       0.1727
     77  C          5.9160   19.7840    8.7760 C.2    92  VAL92       0.2616
     78  O          7.0100   19.3370    9.1300 O.2    92  VAL92      -0.2715
     79  CB         4.7160   17.5190    8.6520 C.3    92  VAL92       0.0290
     80  CG1        4.0990   17.6610   10.0250 C.3    92  VAL92       0.0023
     81  CG2        3.8000   16.6440    7.7620 C.3    92  VAL92       0.0023
     82  N          5.5590   21.0470    9.0110 N.am   93  TYR93      -0.1974
     83  CA         6.4760   21.9670    9.6850 C.3    93  TYR93       0.1639
     84  C          6.8770   21.6430   11.1190 C.2    93  TYR93       0.2290
     85  O          8.0520   21.7690   11.4670 O.2    93  TYR93      -0.2864
     86  CB         5.9210   23.3980    9.6390 C.3    93  TYR93       0.0560
     87  CG         5.9780   24.0580    8.2740 C.ar   93  TYR93      -0.0198
     88  CD1        6.2370   23.3220    7.1190 C.ar   93  TYR93      -0.0009
     89  CD2        5.7700   25.4330    8.1440 C.ar   93  TYR93      -0.0009
     90  CE1        6.2880   23.9380    5.8600 C.ar   93  TYR93       0.0417
     91  CE2        5.8190   26.0620    6.8960 C.ar   93  TYR93       0.0417
     92  CZ         6.0770   25.3120    5.7590 C.ar   93  TYR93       0.1957
     93  OH         6.1230   25.9370    4.5250 O.3    93  TYR93      -0.2866
     94  N          6.1570   11.3130   12.4180 N.3   100  ILE100     -0.1245
     95  CA         5.9430   11.8440   11.0750 C.3   100  ILE100      0.1561
     96  C          6.5660   10.8580   10.0740 C.2   100  ILE100      0.2260
     97  O          5.9460   10.5090    9.0720 O.2   100  ILE100     -0.2867
     98  CB         6.5960   13.2510   10.9390 C.3   100  ILE100      0.0252
     99  CG1        5.7910   14.2660   11.7610 C.3   100  ILE100      0.0019
    100  CG2        6.6770   13.6710    9.4750 C.3   100  ILE100      0.0019
    101  CD1        6.4750   15.6460   11.8700 C.3   100  ILE100      0.0001
    102  N          4.7760    8.4070    7.0900 N.3   104  ARG104     -0.1245
    103  CA         5.1940    8.5170    5.6900 C.3   104  ARG104      0.1563
    104  C          5.5860    7.1980    5.0020 C.2   104  ARG104      0.2260
    105  O          5.6470    7.1500    3.7770 O.2   104  ARG104     -0.2867
    106  CB         6.3630    9.5220    5.5430 C.3   104  ARG104      0.0307
    107  CG         5.9170   10.9750    5.6640 C.3   104  ARG104      0.0489
    108  CD         7.1020   11.9440    5.7920 C.3   104  ARG104      0.2205
    109  NE         6.6340   13.3350    5.7230 N.pl3 104  ARG104     -0.0865
    110  CZ         7.3880   14.3920    6.0240 C.cat 104  ARG104      0.5346
    111  NH1        8.6440   14.2180    6.4330 N.pl3 104  ARG104      0.1354
    112  NH2        6.8970   15.6250    5.8690 N.pl3 104  ARG104      0.1354
@<TRIPOS>BOND
     1    59    58    2
     2    58    57    1
     3    57    56    1
     4    57    60    1
     5    64    62   ar
     6    64    65   ar
     7    62    61   ar
     8    65    63   ar
     9    61    60    1
    10    61    63   ar
    11    48    47    2
    12    47    46    1
    13    36    35    2
    14    74    73    1
    15    44    43    1
    16    73    72    1
    17    25    24    2
    18    46    49    1
    19    46    45    1
    20    35    45   am
    21    35    34    1
    22    43    42   ar
    23    43    41   ar
    24    55    53    1
    25    42    40   ar
    26    49    50    1
    27    41    39   ar
    28    22    23    1
    29    72    71    1
    30    71    70    1
    31    24    33   am
    32    24    23    1
    33    50    51    1
    34    40    38   ar
    35    34    33    1
    36    34    37    1
    37    52    53    2
    38    52    51    1
    39    53    54    1
    40    39    38   ar
    41    66    67    1
    42    38    37    1
    43    27    26    1
    44    27    28    1
    45    23    26    1
    46   105   104    2
    47    70    67    1
    48    67    68    1
    49    28    29    1
    50    93    92    1
    51   104   103    1
    52    29    30    2
    53    69    68    2
    54   106   107    1
    55   106   103    1
    56    68    75   am
    57   107   108    1
    58   103   102    1
    59   109   108    1
    60   109   110    2
    61    92    90   ar
    62    92    91   ar
    63    90    88   ar
    64   112   110    1
    65   110   111    1
    66    30    31    1
    67    30    32    1
    68    75    76    1
    69    91    89   ar
    70    88    87   ar
    71    14    13    2
    72    81    79    1
    73    10     8   ar
    74    10     9   ar
    75    76    79    1
    76    76    77    1
    77     8     6   ar
    78    13    12    1
    79    89    87   ar
    80    87    86    1
    81    79    80    1
    82    77    82   am
    83    77    78    2
    84     9     7   ar
    85    82    83    1
    86    97    96    2
    87     6     7   ar
    88     6     5    1
    89   100    98    1
    90    12    11    1
    91    12    15    1
    92    86    83    1
    93    83    84    1
    94     5     2    1
    95    11     3   am
    96    15    16    1
    97    96    95    1
    98     3     2    1
    99     3     4    2
   100    98    95    1
   101    98    99    1
   102     2     1    1
   103    95    94    1
   104    84    85    2
   105    16    18   ar
   106    16    17   ar
   107    99   101    1
   108    18    20   ar
   109    17    19   ar
   110    20    21   ar
   111    19    21   ar
