@<TRIPOS>MOLECULE
tmp/1h6mA00.pdb
 142 139 0 0 0
SMALL
GASTEIGER

@<TRIPOS>ATOM
      1  N          4.4200   24.1770   13.4680 N.3    35  GLN35      -0.1245
      2  CA         5.1850   23.4170   14.4500 C.3    35  GLN35       0.1566
      3  C          5.6990   22.0970   13.9090 C.2    35  GLN35       0.2260
      4  O          6.7950   21.6650   14.2520 O.2    35  GLN35      -0.2867
      5  CB         4.3180   23.1890   15.6550 C.3    35  GLN35       0.0367
      6  CG         4.0690   24.4850   16.3690 C.3    35  GLN35       0.0905
      7  CD         3.3460   24.2560   17.6380 C.2    35  GLN35       0.2608
      8  OE1        3.9240   24.4070   18.7200 O.2    35  GLN35      -0.2717
      9  NE2        2.0880   23.8560   17.5340 N.am   35  GLN35      -0.0878
     10  N         14.6660   20.5090   22.8950 N.3    46  ASN46      -0.1240
     11  CA        14.7200   21.8600   23.4790 C.3    46  ASN46       0.1653
     12  C         16.0380   22.0360   24.2300 C.2    46  ASN46       0.2266
     13  O         16.5910   21.0570   24.6970 O.2    46  ASN46      -0.2867
     14  CB        13.5200   22.0370   24.4230 C.3    46  ASN46       0.1155
     15  CG        12.2200   21.6040   23.7500 C.2    46  ASN46       0.2627
     16  OD1       11.3250   21.0350   24.3660 O.2    46  ASN46      -0.2716
     17  ND2       12.1430   21.8480   22.4480 N.am   46  ASN46      -0.0877
     18  N         16.6190   22.9550   27.1240 N.3    48  ASP48      -0.1239
     19  CA        16.5140   22.5260   28.5210 C.3    48  ASP48       0.1674
     20  C         16.5020   21.0360   28.6580 C.2    48  ASP48       0.2266
     21  O         16.3410   20.5080   29.7590 O.2    48  ASP48      -0.2867
     22  CB        15.2930   23.1470   29.2230 C.3    48  ASP48       0.1410
     23  CG        13.9580   22.6150   28.7080 C.2    48  ASP48       0.3668
     24  OD1       13.9390   21.7110   27.8350 O.co2  48  ASP48      -0.2456
     25  OD2       12.8520   23.0270   29.1310 O.co2  48  ASP48      -0.2456
     26  N         14.2980   18.8720   27.2730 N.3    50  SER50      -0.1217
     27  CA        12.9900   18.2520   27.0340 C.3    50  SER50       0.1889
     28  C         12.9040   18.0760   25.5230 C.2    50  SER50       0.2288
     29  O         13.7810   18.5330   24.8060 O.2    50  SER50      -0.2866
     30  CB        11.8360   19.1470   27.5270 C.3    50  SER50       0.2089
     31  OG        11.8000   20.4060   26.8570 O.3    50  SER50      -0.2183
     32  N          9.9320   18.0720   22.0860 N.3    52  ASP52      -0.1239
     33  CA         8.5700   18.2930   21.5750 C.3    52  ASP52       0.1674
     34  C          8.2310   17.1540   20.5910 C.2    52  ASP52       0.2266
     35  O          9.0620   16.7530   19.7720 O.2    52  ASP52      -0.2867
     36  CB         8.5540   19.5890   20.7920 C.3    52  ASP52       0.1410
     37  CG         8.5110   20.8720   21.6410 C.2    52  ASP52       0.3668
     38  OD1        8.3530   20.9370   22.8350 O.co2  52  ASP52      -0.2456
     39  OD2        8.6690   21.9610   20.8340 O.co2  52  ASP52      -0.2456
     40  N          3.5830   19.3250   18.6470 N.3    57  GLN57      -0.1231
     41  CA         4.8990   19.6370   19.2960 C.3    57  GLN57       0.1698
     42  C          4.7220   19.7750   20.8120 C.2    57  GLN57       0.2592
     43  O          5.2010   20.7330   21.4400 O.2    57  GLN57      -0.2718
     44  CB         5.6050   20.8390   18.6330 C.3    57  GLN57       0.0381
     45  CG         6.1640   20.4610   17.2130 C.3    57  GLN57       0.0905
     46  CD         7.2880   19.4590   17.3560 C.2    57  GLN57       0.2608
     47  OE1        8.4210   19.8370   17.6720 O.2    57  GLN57      -0.2717
     48  NE2        6.9890   18.1860   17.1030 N.am   57  GLN57      -0.0878
     49  N          4.0710   18.7600   21.3730 N.am   58  ILE58      -0.1966
     50  CA         3.7660   18.7020   22.8090 C.3    58  ILE58       0.1727
     51  C          5.0250   18.3000   23.5760 C.2    58  ILE58       0.2616
     52  O          5.7690   17.3960   23.1420 O.2    58  ILE58      -0.2715
     53  CB         2.6380   17.7280   23.0170 C.3    58  ILE58       0.0290
     54  CG1        1.3560   18.3730   22.4870 C.3    58  ILE58       0.0022
     55  CG2        2.5110   17.3960   24.4860 C.3    58  ILE58       0.0023
     56  CD1        0.0870   17.4770   22.4990 C.3    58  ILE58       0.0001
     57  N          5.2860   19.0220   24.6700 N.am   59  ASN59      -0.1972
     58  CA         6.5740   18.9840   25.3610 C.3    59  ASN59       0.1688
     59  C          6.6510   18.0280   26.5400 C.2    59  ASN59       0.2292
     60  O          5.7160   17.9410   27.3310 O.2    59  ASN59      -0.2864
     61  CB         6.9260   20.3880   25.8510 C.3    59  ASN59       0.1181
     62  CG         8.3140   20.4440   26.4500 C.2    59  ASN59       0.2629
     63  OD1        8.4630   20.6030   27.6290 O.2    59  ASN59      -0.2716
     64  ND2        9.3150   20.3050   25.6170 N.am   59  ASN59      -0.0877
     65  N          8.4710   18.1670   29.1000 N.3    61  ARG61      -0.1231
     66  CA         8.7410   18.8290   30.3900 C.3    61  ARG61       0.1694
     67  C          7.5240   18.6940   31.2920 C.2    61  ARG61       0.2592
     68  O          7.6470   18.5190   32.5090 O.2    61  ARG61      -0.2718
     69  CB         9.0850   20.3150   30.1490 C.3    61  ARG61       0.0321
     70  CG         9.3530   21.1870   31.3910 C.3    61  ARG61       0.0489
     71  CD        10.6110   20.8350   32.1710 C.3    61  ARG61       0.2205
     72  NE        11.8540   20.7670   31.3820 N.pl3  61  ARG61      -0.0865
     73  CZ        12.8270   19.8890   31.6360 C.cat  61  ARG61       0.5346
     74  NH1       12.6650   19.0400   32.6430 N.pl3  61  ARG61       0.1354
     75  NH2       13.9450   19.8460   30.9130 N.pl3  61  ARG61       0.1354
     76  N          6.3390   18.7630   30.6950 N.am   62  TRP62      -0.1962
     77  CA         5.1060   18.7040   31.4520 C.3    62  TRP62       0.1771
     78  C          4.0850   17.6520   31.0710 C.2    62  TRP62       0.2619
     79  O          3.3350   17.1790   31.9140 O.2    62  TRP62      -0.2715
     80  CB         4.3910   20.0570   31.3170 C.3    62  TRP62       0.0590
     81  CG         5.1730   21.1900   31.8090 C.ar   62  TRP62       0.0006
     82  CD1        5.8470   22.1060   31.0670 C.ar   62  TRP62       0.0946
     83  CD2        5.3860   21.5350   33.1720 C.ar   62  TRP62       0.0152
     84  NE1        6.4630   23.0220   31.8890 N.ar   62  TRP62      -0.2442
     85  CE2        6.1890   22.6930   33.1910 C.ar   62  TRP62       0.0810
     86  CE3        4.9690   20.9860   34.3870 C.ar   62  TRP62       0.0012
     87  CZ2        6.5940   23.3120   34.3830 C.ar   62  TRP62       0.0191
     88  CZ3        5.3730   21.6070   35.5810 C.ar   62  TRP62       0.0001
     89  CH2        6.1710   22.7550   35.5600 C.ar   62  TRP62       0.0015
     90  N          4.0580   17.2520   29.8060 N.am   63  TRP63      -0.1974
     91  CA         2.8880   16.5660   29.3040 C.3    63  TRP63       0.1640
     92  C          2.9350   15.1150   28.9670 C.2    63  TRP63       0.2290
     93  O          1.9060   14.4540   28.9650 O.2    63  TRP63      -0.2864
     94  CB         2.3130   17.3860   28.1130 C.3    63  TRP63       0.0576
     95  CG         2.1510   18.8560   28.4130 C.ar   63  TRP63       0.0006
     96  CD1        2.9180   19.9050   27.9580 C.ar   63  TRP63       0.0946
     97  CD2        1.1440   19.4320   29.2420 C.ar   63  TRP63       0.0152
     98  NE1        2.4330   21.0980   28.4530 N.ar   63  TRP63      -0.2442
     99  CE2        1.3610   20.8370   29.2600 C.ar   63  TRP63       0.0810
    100  CE3        0.0910   18.8990   29.9920 C.ar   63  TRP63       0.0012
    101  CZ2        0.5210   21.7230   29.9710 C.ar   63  TRP63       0.0191
    102  CZ3       -0.7260   19.7690   30.7080 C.ar   63  TRP63       0.0001
    103  CH2       -0.4940   21.1560   30.6980 C.ar   63  TRP63       0.0015
    104  N         -3.8730   20.7920   27.5540 N.3    98  ILE98      -0.1245
    105  CA        -2.8800   21.8590   27.5450 C.3    98  ILE98       0.1561
    106  C         -3.5620   23.1990   27.3690 C.2    98  ILE98       0.2260
    107  O         -3.2600   24.1620   28.0640 O.2    98  ILE98      -0.2867
    108  CB        -1.8220   21.6440   26.4200 C.3    98  ILE98       0.0252
    109  CG1       -0.9850   20.4000   26.7300 C.3    98  ILE98       0.0019
    110  CG2       -0.8680   22.8480   26.3580 C.3    98  ILE98       0.0019
    111  CD1       -0.0600   19.9650   25.5730 C.3    98  ILE98       0.0001
    112  N          0.1680   28.5090   25.0870 N.3   107  ALA107     -0.1231
    113  CA         1.0590   27.3970   25.4360 C.3   107  ALA107      0.1694
    114  C          1.8890   26.9510   24.2320 C.2   107  ALA107      0.2592
    115  O          3.0000   26.4300   24.3850 O.2   107  ALA107     -0.2718
    116  CB         0.2400   26.2400   26.0050 C.3   107  ALA107      0.0304
    117  N          1.3700   27.1620   23.0280 N.am  108  TRP108     -0.1962
    118  CA         2.1470   26.8680   21.8230 C.3   108  TRP108      0.1771
    119  C          2.8170   28.1450   21.3370 C.2   108  TRP108      0.2619
    120  O          2.1710   29.0360   20.7870 O.2   108  TRP108     -0.2715
    121  CB         1.2870   26.2830   20.7070 C.3   108  TRP108      0.0590
    122  CG         0.8170   24.9010   20.9840 C.ar  108  TRP108      0.0006
    123  CD1        1.4630   23.7390   20.6590 C.ar  108  TRP108      0.0946
    124  CD2       -0.3770   24.5130   21.6780 C.ar  108  TRP108      0.0152
    125  NE1        0.7420   22.6490   21.0890 N.ar  108  TRP108     -0.2442
    126  CE2       -0.4060   23.0930   21.7020 C.ar  108  TRP108      0.0810
    127  CE3       -1.4510   25.2150   22.2660 C.ar  108  TRP108      0.0012
    128  CZ2       -1.4480   22.3640   22.2940 C.ar  108  TRP108      0.0191
    129  CZ3       -2.5180   24.4650   22.8530 C.ar  108  TRP108      0.0001
    130  CH2       -2.4790   23.0530   22.8660 C.ar  108  TRP108      0.0015
    131  N          4.1250   28.2110   21.5350 N.am  109  VAL109     -0.1963
    132  CA         4.8920   29.3750   21.1440 C.3   109  VAL109      0.1727
    133  C          4.6650   29.7900   19.6950 C.2   109  VAL109      0.2616
    134  O          4.4610   30.9890   19.4160 O.2   109  VAL109     -0.2715
    135  CB         6.4070   29.0950   21.3910 C.3   109  VAL109      0.0290
    136  CG1        7.2880   30.1530   20.7410 C.3   109  VAL109      0.0023
    137  CG2        6.6470   28.9740   22.9000 C.3   109  VAL109      0.0023
    138  N          4.7440   28.8350   18.7750 N.am  110  ALA110     -0.1977
    139  CA         4.5720   29.1350   17.3500 C.3   110  ALA110      0.1597
    140  C          3.1770   29.6590   17.0650 C.2   110  ALA110      0.2287
    141  O          2.9980   30.4870   16.1760 O.2   110  ALA110     -0.2864
    142  CB         4.8910   27.9200   16.4640 C.3   110  ALA110      0.0319
@<TRIPOS>BOND
     1     1     2    1
     2     3     4    2
     3     3     2    1
     4     2     5    1
     5     5     6    1
     6   141   140    2
     7     6     7    1
     8   142   139    1
     9   140   139    1
    10    48    46   am
    11    45    46    1
    12    45    44    1
    13   139   138    1
    14    46    47    2
    15     9     7   am
    16     7     8    2
    17    44    41    1
    18    40    41    1
    19   138   133   am
    20    41    42    1
    21   134   133    2
    22   133   132    1
    23    35    34    2
    24    34    33    1
    25   123   122   ar
    26   123   125   ar
    27   121   122    1
    28   121   118    1
    29   136   135    1
    30   120   119    2
    31    36    33    1
    32    36    37    1
    33    42    49   am
    34    42    43    2
    35    39    37   ar
    36   122   124   ar
    37   125   126   ar
    38   132   135    1
    39   132   131    1
    40   119   131   am
    41   119   118    1
    42    49    50    1
    43   135   137    1
    44    33    32    1
    45    37    38   ar
    46   124   126   ar
    47   124   127   ar
    48   126   128   ar
    49   118   117    1
    50   127   129   ar
    51   128   130   ar
    52    17    15   am
    53    54    56    1
    54    54    53    1
    55    50    53    1
    56    50    51    1
    57   129   130   ar
    58    10    11    1
    59    53    55    1
    60   117   114   am
    61    52    51    2
    62    11    12    1
    63    11    14    1
    64    51    57   am
    65    15    16    2
    66    15    14    1
    67    12    13    2
    68   114   115    2
    69   114   113    1
    70    57    58    1
    71    29    28    2
    72   112   113    1
    73    58    61    1
    74    58    59    1
    75   113   116    1
    76    28    27    1
    77   111   109    1
    78    64    62   am
    79    61    62    1
    80   110   108    1
    81   108   109    1
    82   108   105    1
    83    62    63    2
    84    59    60    2
    85    31    30    1
    86    27    26    1
    87    27    30    1
    88    18    19    1
    89   106   105    1
    90   106   107    2
    91   105   104    1
    92    24    23   ar
    93    96    95   ar
    94    96    98   ar
    95    94    95    1
    96    94    91    1
    97    95    97   ar
    98    98    99   ar
    99    19    20    1
   100    19    22    1
   101    20    21    2
   102    23    25   ar
   103    23    22    1
   104    93    92    2
   105    92    91    1
   106    65    66    1
   107    97    99   ar
   108    97   100   ar
   109    99   101   ar
   110    91    90    1
   111    90    78   am
   112   101   103   ar
   113   100   102   ar
   114    69    66    1
   115    69    70    1
   116    66    67    1
   117    76    67   am
   118    76    77    1
   119   103   102   ar
   120    75    73    1
   121    82    81   ar
   122    82    84   ar
   123    78    77    1
   124    78    79    2
   125    67    68    2
   126    80    77    1
   127    80    81    1
   128    72    73    2
   129    72    71    1
   130    70    71    1
   131    73    74    1
   132    81    83   ar
   133    84    85   ar
   134    83    85   ar
   135    83    86   ar
   136    85    87   ar
   137    87    89   ar
   138    86    88   ar
   139    89    88   ar
