@<TRIPOS>MOLECULE
tmp/1h6vD01.pdb
 175 169 0 0 0
SMALL
GASTEIGER

@<TRIPOS>ATOM
      1  N         33.7270  -15.8280   93.0760 N.3   158  ARG158     -0.1245
      2  CA        34.6450  -16.9330   93.0220 C.3   158  ARG158      0.1563
      3  C         35.9620  -16.4600   92.4510 C.2   158  ARG158      0.2260
      4  O         35.9620  -15.6760   91.5220 O.2   158  ARG158     -0.2867
      5  CB        34.0190  -17.9320   92.0910 C.3   158  ARG158      0.0307
      6  CG        34.8520  -19.1330   91.8220 C.3   158  ARG158      0.0489
      7  CD        34.1990  -20.0890   90.7810 C.3   158  ARG158      0.2205
      8  NE        32.7870  -20.3670   91.0790 N.pl3 158  ARG158     -0.0865
      9  CZ        31.9790  -21.0830   90.3010 C.cat 158  ARG158      0.5346
     10  NH1       32.4440  -21.6100   89.1680 N.pl3 158  ARG158      0.1354
     11  NH2       30.7070  -21.2630   90.6540 N.pl3 158  ARG158      0.1354
     12  N         39.9490  -17.3430   90.7590 N.3   160  LEU160     -0.1245
     13  CA        40.6200  -18.3690   89.9740 C.3   160  LEU160      0.1561
     14  C         41.6820  -18.9890   90.8680 C.2   160  LEU160      0.2260
     15  O         42.3480  -18.3020   91.6460 O.2   160  LEU160     -0.2867
     16  CB        41.3800  -17.7110   88.8370 C.3   160  LEU160      0.0270
     17  CG        40.7870  -17.4010   87.4800 C.3   160  LEU160      0.0019
     18  CD1       39.3370  -17.7420   87.4000 C.3   160  LEU160      0.0001
     19  CD2       41.0180  -15.9610   87.2120 C.3   160  LEU160      0.0001
     20  N         37.7380  -10.4430   83.4920 N.3   188  VAL188     -0.1231
     21  CA        37.8460  -11.8490   83.1720 C.3   188  VAL188      0.1692
     22  C         36.5220  -12.5000   83.4230 C.2   188  VAL188      0.2593
     23  O         36.0450  -12.4430   84.5400 O.2   188  VAL188     -0.2718
     24  CB        38.8320  -12.5140   84.1300 C.3   188  VAL188      0.0266
     25  CG1       38.8950  -14.0290   83.9180 C.3   188  VAL188      0.0020
     26  CG2       40.1580  -11.8730   84.0000 C.3   188  VAL188      0.0020
     27  N         35.9530  -13.1460   82.4090 N.am  189  GLY189     -0.1942
     28  CA        34.6560  -13.7950   82.5350 C.3   189  GLY189      0.2014
     29  C         33.7130  -13.3030   81.4570 C.2   189  GLY189      0.2639
     30  O         33.8660  -12.2090   80.9360 O.2   189  GLY189     -0.2714
     31  N         32.7150  -14.0940   81.1150 N.am  190  ALA190     -0.1963
     32  CA        31.8450  -13.6660   80.0540 C.3   190  ALA190      0.1728
     33  C         30.3280  -13.6900   80.3230 C.2   190  ALA190      0.2617
     34  O         29.5580  -13.5680   79.3800 O.2   190  ALA190     -0.2715
     35  CB        32.1330  -14.4650   78.8760 C.3   190  ALA190      0.0334
     36  N         29.8680  -13.8540   81.5580 N.am  191  SER191     -0.1936
     37  CA        28.4250  -13.9200   81.7620 C.3   191  SER191      0.2055
     38  C         27.9480  -12.5390   82.0570 C.2   191  SER191      0.2643
     39  O         28.6910  -11.5630   81.8710 O.2   191  SER191     -0.2714
     40  CB        28.0670  -14.7580   82.9680 C.3   191  SER191      0.2130
     41  OG        28.6130  -14.1300   84.1680 O.3   191  SER191     -0.2179
     42  N         26.7350  -12.4370   82.6010 N.am  192  TYR192     -0.1973
     43  CA        26.2040  -11.1040   82.7990 C.3   192  TYR192      0.1639
     44  C         27.1080  -10.2070   83.5990 C.2   192  TYR192      0.2290
     45  O         27.5620   -9.2080   83.0890 O.2   192  TYR192     -0.2864
     46  CB        24.7630  -11.0700   83.2580 C.3   192  TYR192      0.0560
     47  CG        24.4680  -11.5650   84.6500 C.ar  192  TYR192     -0.0198
     48  CD1       24.8170  -12.8600   85.0520 C.ar  192  TYR192     -0.0009
     49  CD2       23.7430  -10.7670   85.5520 C.ar  192  TYR192     -0.0009
     50  CE1       24.4640  -13.3380   86.3380 C.ar  192  TYR192      0.0417
     51  CE2       23.3950  -11.2380   86.8320 C.ar  192  TYR192      0.0417
     52  CZ        23.7610  -12.5100   87.2130 C.ar  192  TYR192      0.1957
     53  OH        23.4130  -12.9510   88.4730 O.3   192  TYR192     -0.2866
     54  N         36.8450  -17.1080   78.2260 N.3   213  ARG213     -0.1231
     55  CA        37.4140  -18.4410   78.1340 C.3   213  ARG213      0.1694
     56  C         36.7310  -19.2440   77.0560 C.2   213  ARG213      0.2593
     57  O         37.3940  -19.9670   76.3300 O.2   213  ARG213     -0.2718
     58  CB        37.4460  -19.1390   79.4770 C.3   213  ARG213      0.0321
     59  CG        37.2390  -20.6340   79.5500 C.3   213  ARG213      0.0489
     60  CD        37.7640  -21.1490   80.8880 C.3   213  ARG213      0.2205
     61  NE        36.9960  -22.1050   81.7120 N.pl3 213  ARG213     -0.0865
     62  CZ        35.7520  -21.9660   82.1690 C.cat 213  ARG213      0.5346
     63  NH1       34.9980  -20.9340   81.8210 N.pl3 213  ARG213      0.1354
     64  NH2       35.2530  -22.9120   82.9510 N.pl3 213  ARG213      0.1354
     65  N         35.4240  -19.0850   76.8800 N.am  214  SER214     -0.1938
     66  CA        34.7740  -19.8000   75.7900 C.3   214  SER214      0.2055
     67  C         33.7750  -18.9410   75.0240 C.2   214  SER214      0.2642
     68  O         34.1520  -18.0340   74.2800 O.2   214  SER214     -0.2714
     69  CB        34.0900  -21.0390   76.3380 C.3   214  SER214      0.2130
     70  OG        33.3780  -20.7090   77.5030 O.3   214  SER214     -0.2179
     71  N         32.4960  -19.2410   75.2160 N.am  215  ILE215     -0.1977
     72  CA        31.4100  -18.5320   74.5590 C.3   215  ILE215      0.1596
     73  C         30.9510  -17.4100   75.4580 C.2   215  ILE215      0.2287
     74  O         31.2720  -17.4160   76.6190 O.2   215  ILE215     -0.2864
     75  CB        30.2560  -19.4710   74.4530 C.3   215  ILE215      0.0276
     76  CG1       29.8460  -19.8860   75.8620 C.3   215  ILE215      0.0022
     77  CG2       30.6410  -20.7050   73.7040 C.3   215  ILE215      0.0022
     78  CD1       28.6470  -20.7960   75.8710 C.3   215  ILE215      0.0001
     79  N         27.0720  -17.8780   78.3590 N.3   218  ARG218     -0.1231
     80  CA        26.6770  -19.2840   78.3620 C.3   218  ARG218      0.1694
     81  C         25.3580  -19.3350   79.0520 C.2   218  ARG218      0.2593
     82  O         25.2210  -18.7290   80.0990 O.2   218  ARG218     -0.2718
     83  CB        27.6480  -20.1560   79.1810 C.3   218  ARG218      0.0321
     84  CG        27.2440  -21.6360   79.2320 C.3   218  ARG218      0.0489
     85  CD        28.3010  -22.5800   79.8200 C.3   218  ARG218      0.2205
     86  NE        29.6110  -22.2160   79.2920 N.pl3 218  ARG218     -0.0865
     87  CZ        30.0360  -22.5360   78.0870 C.cat 218  ARG218      0.5346
     88  NH1       29.2800  -23.2860   77.2890 N.pl3 218  ARG218      0.1354
     89  NH2       31.2210  -22.1050   77.6860 N.pl3 218  ARG218      0.1354
     90  N         24.4060  -20.0600   78.4720 N.am  219  GLY219     -0.1942
     91  CA        23.1060  -20.2500   79.0800 C.3   219  GLY219      0.2014
     92  C         22.0160  -19.5710   78.2930 C.2   219  GLY219      0.2638
     93  O         20.9050  -20.1000   78.1640 O.2   219  GLY219     -0.2714
     94  N         22.3280  -18.4040   77.7450 N.am  220  PHE220     -0.1973
     95  CA        21.3100  -17.6790   77.0130 C.3   220  PHE220      0.1639
     96  C         21.4380  -17.8700   75.5310 C.2   220  PHE220      0.2290
     97  O         22.4740  -18.2760   75.0350 O.2   220  PHE220     -0.2864
     98  CB        21.3630  -16.1820   77.2730 C.3   220  PHE220      0.0560
     99  CG        21.2570  -15.7770   78.7050 C.ar  220  PHE220     -0.0200
    100  CD1       22.2120  -16.1650   79.6280 C.ar  220  PHE220     -0.0042
    101  CD2       20.2620  -14.9120   79.1100 C.ar  220  PHE220     -0.0042
    102  CE1       22.1590  -15.7230   80.9720 C.ar  220  PHE220     -0.0003
    103  CE2       20.2050  -14.4720   80.4100 C.ar  220  PHE220     -0.0003
    104  CZ        21.1600  -14.8780   81.3470 C.ar  220  PHE220     -0.0000
    105  N         42.7420  -17.7020   79.4120 N.3   244  VAL244     -0.1231
    106  CA        42.4650  -17.7160   80.8370 C.3   244  VAL244      0.1678
    107  C         43.6970  -17.2910   81.6030 C.2   244  VAL244      0.2434
    108  O         44.7670  -17.8330   81.4010 O.2   244  VAL244     -0.2733
    109  CB        42.1100  -19.1050   81.3060 C.3   244  VAL244      0.0265
    110  CG1       41.8020  -19.0830   82.8030 C.3   244  VAL244      0.0020
    111  CG2       40.9290  -19.6240   80.5120 C.3   244  VAL244      0.0020
    112  N         43.5330  -16.3290   82.4950 N.am  245  PRO245     -0.2729
    113  CA        44.6410  -15.8220   83.2880 C.3   245  PRO245      0.1401
    114  C         45.3860  -16.9610   83.9660 C.2   245  PRO245      0.2269
    115  O         44.7440  -17.8970   84.4550 O.2   245  PRO245     -0.2865
    116  CB        43.9240  -14.9830   84.3310 C.3   245  PRO245      0.0296
    117  CG        42.7520  -14.5280   83.6600 C.3   245  PRO245      0.0237
    118  CD        42.2720  -15.6420   82.8110 C.3   245  PRO245      0.0939
    119  N         33.7650  -14.0170   87.7760 N.3   283  VAL283     -0.1231
    120  CA        33.8430  -15.2000   86.9480 C.3   283  VAL283      0.1692
    121  C         33.1080  -16.4120   87.5960 C.2   283  VAL283      0.2593
    122  O         33.5390  -17.5650   87.4920 O.2   283  VAL283     -0.2718
    123  CB        35.3790  -15.5260   86.7180 C.3   283  VAL283      0.0266
    124  CG1       35.8840  -16.4920   87.7070 C.3   283  VAL283      0.0020
    125  CG2       35.6340  -16.0660   85.3810 C.3   283  VAL283      0.0020
    126  N         31.9930  -16.1470   88.2720 N.am  284  GLY284     -0.1942
    127  CA        31.2300  -17.2070   88.9080 C.3   284  GLY284      0.2014
    128  C         30.9510  -16.9280   90.3710 C.2   284  GLY284      0.2638
    129  O         31.5890  -16.0560   90.9690 O.2   284  GLY284     -0.2714
    130  N         29.9790  -17.6180   90.9630 N.am  285  ARG285     -0.1977
    131  CA        29.7640  -17.4140   92.3840 C.3   285  ARG285      0.1597
    132  C         29.5210  -18.7440   93.0790 C.2   285  ARG285      0.2287
    133  O         29.0120  -19.6670   92.4690 O.2   285  ARG285     -0.2864
    134  CB        28.6920  -16.3560   92.6590 C.3   285  ARG285      0.0334
    135  CG        28.5010  -15.3080   91.5510 C.3   285  ARG285      0.0492
    136  CD        28.1420  -13.8780   92.0160 C.3   285  ARG285      0.2205
    137  NE        27.0490  -13.7980   93.0020 N.pl3 285  ARG285     -0.0865
    138  CZ        27.1290  -13.0410   94.0800 C.cat 285  ARG285      0.5346
    139  NH1       28.2140  -12.3620   94.2880 N.pl3 285  ARG285      0.1354
    140  NH2       26.1650  -12.9410   94.9440 N.pl3 285  ARG285      0.1354
    141  N         25.0200  -25.9410   96.0360 N.3   307  LYS307     -0.1245
    142  CA        23.6010  -25.6670   96.0220 C.3   307  LYS307      0.1561
    143  C         22.8240  -26.6650   96.9030 C.2   307  LYS307      0.2260
    144  O         23.2850  -27.7920   97.0990 O.2   307  LYS307     -0.2867
    145  CB        23.0730  -25.6700   94.5850 C.3   307  LYS307      0.0271
    146  CG        23.5830  -24.5190   93.6720 C.3   307  LYS307      0.0035
    147  CD        22.6530  -23.3180   93.7010 C.3   307  LYS307      0.0206
    148  CE        23.2710  -22.0450   93.1040 C.3   307  LYS307      0.1093
    149  NZ        22.7340  -21.8150   91.7340 N.3   307  LYS307     -0.1314
    150  N         17.4220  -23.7840   90.6440 N.3   331  LYS331     -0.1231
    151  CA        16.5210  -22.6690   90.4200 C.3   331  LYS331      0.1693
    152  C         17.2600  -21.5160   89.7370 C.2   331  LYS331      0.2592
    153  O         18.2810  -21.7650   89.0970 O.2   331  LYS331     -0.2718
    154  CB        15.8670  -22.2720   91.7290 C.3   331  LYS331      0.0285
    155  CG        15.4460  -23.4660   92.5660 C.3   331  LYS331      0.0035
    156  CD        14.5020  -24.3470   91.7470 C.3   331  LYS331      0.0206
    157  CE        13.6900  -25.2800   92.6110 C.3   331  LYS331      0.1093
    158  NZ        12.2220  -25.1720   92.2740 N.3   331  LYS331     -0.1314
    159  N         16.7570  -20.2800   89.8230 N.am  332  LEU332     -0.1966
    160  CA        17.4040  -19.1600   89.1470 C.3   332  LEU332      0.1728
    161  C         17.9790  -18.3650   90.1950 C.2   332  LEU332      0.2616
    162  O         17.4080  -18.3560   91.2580 O.2   332  LEU332     -0.2715
    163  CB        16.4140  -18.2400   88.4900 C.3   332  LEU332      0.0311
    164  CG        15.6710  -18.8380   87.3220 C.3   332  LEU332      0.0022
    165  CD1       16.6140  -19.8020   86.6260 C.3   332  LEU332      0.0001
    166  CD2       14.4740  -19.5410   87.8820 C.3   332  LEU332      0.0001
    167  N         19.0750  -17.6620   89.9180 N.am  333  GLU333     -0.1977
    168  CA        19.7060  -16.8010   90.9280 C.3   333  GLU333      0.1602
    169  C         19.2510  -15.3950   90.6520 C.2   333  GLU333      0.2287
    170  O         19.9850  -14.6380   90.0180 O.2   333  GLU333     -0.2864
    171  CB        21.2240  -16.8280   90.8100 C.3   333  GLU333      0.0415
    172  CG        21.8350  -18.1910   91.0230 C.3   333  GLU333      0.1163
    173  CD        23.3320  -18.2410   90.7630 C.2   333  GLU333      0.3649
    174  OE1       24.1190  -17.4590   91.3550 O.co2 333  GLU333     -0.2457
    175  OE2       23.7240  -19.1080   89.9640 O.co2 333  GLU333     -0.2457
@<TRIPOS>BOND
     1    77    75    1
     2    68    67    2
     3    75    72    1
     4    75    76    1
     5    72    71    1
     6    72    73    1
     7    67    71   am
     8    67    66    1
     9    97    96    2
    10    73    74    2
    11    96    95    1
    12    66    69    1
    13    66    65    1
    14    76    78    1
    15    57    56    2
    16    69    70    1
    17    65    56   am
    18    95    98    1
    19    95    94    1
    20    56    55    1
    21    98    99    1
    22    88    87    1
    23    89    87    1
    24    94    92   am
    25    87    86    2
    26    55    54    1
    27    55    58    1
    28    93    92    2
    29    92    91    1
    30    79    80    1
    31    80    81    1
    32    80    83    1
    33    90    81   am
    34    90    91    1
    35    99   101   ar
    36    99   100   ar
    37    35    32    1
    38    81    82    2
    39   101   103   ar
    40    83    84    1
    41    84    85    1
    42    86    85    1
    43    34    33    2
    44   105   106    1
    45    58    59    1
    46    59    60    1
    47   100   102   ar
    48    32    33    1
    49    32    31    1
    50    33    36   am
    51   103   104   ar
    52   111   109    1
    53   106   109    1
    54   106   107    1
    55    60    61    1
    56    30    29    2
    57   102   104   ar
    58    31    29   am
    59   109   110    1
    60   108   107    2
    61    29    28    1
    62    36    37    1
    63   107   112   am
    64    61    62    2
    65    37    38    1
    66    37    40    1
    67    63    62    1
    68    39    38    2
    69    38    42   am
    70    62    64    1
    71    27    28    1
    72    27    22   am
    73   112   118    1
    74   112   113    1
    75    42    43    1
    76    43    46    1
    77    43    44    1
    78   118   117    1
    79    40    41    1
    80    45    44    2
    81    21    22    1
    82    21    20    1
    83    21    24    1
    84    46    47    1
    85   113   114    1
    86   113   116    1
    87    22    23    2
    88   117   116    1
    89    25    24    1
    90   114   115    2
    91    26    24    1
    92    47    48   ar
    93    47    49   ar
    94    48    50   ar
    95   125   123    1
    96    49    51   ar
    97    50    52   ar
    98   165   164    1
    99   123   120    1
   100   123   124    1
   101    51    52   ar
   102   120   121    1
   103   120   119    1
   104    19    17    1
   105    52    53    1
   106   164   166    1
   107   164   163    1
   108    18    17    1
   109    17    16    1
   110   122   121    2
   111   121   126   am
   112   126   127    1
   113   163   160    1
   114    16    13    1
   115   127   128    1
   116   153   152    2
   117   160   159    1
   118   160   161    1
   119    10     9    1
   120   152   159   am
   121   152   151    1
   122   167   161   am
   123   167   168    1
   124   175   173   ar
   125    13    12    1
   126    13    14    1
   127   170   169    2
   128   161   162    2
   129     9    11    1
   130     9     8    2
   131   128   130   am
   132   128   129    2
   133   151   150    1
   134   151   154    1
   135   169   168    1
   136   173   172    1
   137   173   174   ar
   138     7     8    1
   139     7     6    1
   140   171   168    1
   141   171   172    1
   142    14    15    2
   143   130   131    1
   144     4     3    2
   145   135   136    1
   146   135   134    1
   147   154   155    1
   148   149   148    1
   149   156   155    1
   150   156   157    1
   151     6     5    1
   152   136   137    1
   153     5     2    1
   154   158   157    1
   155   131   134    1
   156   131   132    1
   157     3     2    1
   158   133   132    2
   159   137   138    2
   160     2     1    1
   161   148   147    1
   162   146   147    1
   163   146   145    1
   164   138   139    1
   165   138   140    1
   166   145   142    1
   167   142   141    1
   168   142   143    1
   169   143   144    2
