@<TRIPOS>MOLECULE
tmp/1h70A00.pdb
 151 141 0 0 0
SMALL
GASTEIGER

@<TRIPOS>ATOM
      1  N         30.3280    6.7870    3.3950 N.3    19  LEU19      -0.1231
      2  CA        29.4030    6.7260    2.2690 C.3    19  LEU19       0.1693
      3  C         28.2020    7.6380    2.4940 C.2    19  LEU19       0.2592
      4  O         27.7460    7.7850    3.6240 O.2    19  LEU19      -0.2718
      5  CB        28.8790    5.3010    2.1350 C.3    19  LEU19       0.0284
      6  CG        29.8750    4.1950    1.7860 C.3    19  LEU19       0.0019
      7  CD1       29.1690    2.8440    1.9400 C.3    19  LEU19       0.0001
      8  CD2       30.4270    4.3940    0.3710 C.3    19  LEU19       0.0001
      9  N         27.6950    8.2750    1.4330 N.am   20  THR20      -0.1953
     10  CA        26.5030    9.0700    1.5780 C.3    20  THR20       0.1897
     11  C         25.8020    9.3460    0.2670 C.2    20  THR20       0.2313
     12  O         26.4060    9.4150   -0.7900 O.2    20  THR20      -0.2863
     13  CB        26.7690   10.4120    2.2740 C.3    20  THR20       0.1794
     14  OG1       25.4980   11.0430    2.5600 O.3    20  THR20      -0.2208
     15  CG2       27.5360   11.3670    1.3700 C.3    20  THR20       0.0378
     16  N         32.9110    4.0840    7.8300 N.3    61  ASP61      -0.1239
     17  CA        31.5530    3.9670    8.3760 C.3    61  ASP61       0.1674
     18  C         31.4410    2.9470    9.5060 C.2    61  ASP61       0.2266
     19  O         30.3220    2.6060    9.9200 O.2    61  ASP61      -0.2867
     20  CB        30.5950    3.5570    7.2570 C.3    61  ASP61       0.1410
     21  CG        30.3440    4.6580    6.2500 C.2    61  ASP61       0.3668
     22  OD1       29.7200    5.6680    6.6510 O.co2  61  ASP61      -0.2456
     23  OD2       30.7340    4.5410    5.0610 O.co2  61  ASP61      -0.2456
     24  N         29.0090    2.8580   12.5760 N.3    64  PHE64      -0.1241
     25  CA        27.6530    2.3390   12.4370 C.3    64  PHE64       0.1605
     26  C         27.6020    0.8260   12.6460 C.2    64  PHE64       0.2264
     27  O         27.3020    0.0300   11.7290 O.2    64  PHE64      -0.2867
     28  CB        27.0640    2.7270   11.0720 C.3    64  PHE64       0.0534
     29  CG        27.0440    4.2270   10.8760 C.ar   64  PHE64      -0.0203
     30  CD1       27.6530    4.8060    9.7720 C.ar   64  PHE64      -0.0042
     31  CD2       26.4380    5.0330   11.8200 C.ar   64  PHE64      -0.0042
     32  CE1       27.6420    6.1830    9.6050 C.ar   64  PHE64      -0.0003
     33  CE2       26.4120    6.4330   11.6570 C.ar   64  PHE64      -0.0003
     34  CZ        27.0060    6.9960   10.5430 C.ar   64  PHE64      -0.0000
     35  N         25.4790   -0.9790   14.0140 N.3    66  GLU66      -0.1231
     36  CA        24.2010   -1.6450   13.7960 C.3    66  GLU66       0.1699
     37  C         24.2280   -2.5440   12.5590 C.2    66  GLU66       0.2592
     38  O         23.6270   -3.5900   12.5920 O.2    66  GLU66      -0.2718
     39  CB        23.0830   -0.6060   13.6200 C.3    66  GLU66       0.0402
     40  CG        21.7650   -1.1730   13.1120 C.3    66  GLU66       0.1161
     41  CD        20.5700   -0.3580   13.5560 C.2    66  GLU66       0.3649
     42  OE1       20.2400    0.6310   12.8660 O.co2  66  GLU66      -0.2457
     43  OE2       19.9540   -0.6990   14.5730 O.co2  66  GLU66      -0.2457
     44  N         24.9120   -2.1620   11.4840 N.am   67  ASP67      -0.1974
     45  CA        24.8280   -2.9600   10.2430 C.3    67  ASP67       0.1709
     46  C         25.4920   -4.3380   10.2000 C.2    67  ASP67       0.2293
     47  O         24.9100   -5.2910    9.6790 O.2    67  ASP67      -0.2864
     48  CB        25.1880   -2.0720    9.0530 C.3    67  ASP67       0.1436
     49  CG        24.2560   -0.8980    8.9680 C.2    67  ASP67       0.3671
     50  OD1       23.0110   -1.1300    9.0280 O.co2  67  ASP67      -0.2456
     51  OD2       24.6940    0.2480    8.8600 O.co2  67  ASP67      -0.2456
     52  N         32.0800   -1.7150    3.2780 N.3    86  ARG86      -0.1245
     53  CA        31.7040   -2.0570    4.6360 C.3    86  ARG86       0.1563
     54  C         31.6170   -3.5570    4.9140 C.2    86  ARG86       0.2260
     55  O         31.4280   -3.9320    6.0670 O.2    86  ARG86      -0.2867
     56  CB        30.3340   -1.4120    4.9520 C.3    86  ARG86       0.0307
     57  CG        30.3170    0.1120    4.7850 C.3    86  ARG86       0.0489
     58  CD        29.1380    0.7330    5.5550 C.3    86  ARG86       0.2205
     59  NE        29.2240    0.3560    6.9830 N.pl3  86  ARG86      -0.0865
     60  CZ        28.2330    0.4540    7.8320 C.cat  86  ARG86       0.5346
     61  NH1       27.0790    0.9840    7.4490 N.pl3  86  ARG86       0.1354
     62  NH2       28.3870    0.0270    9.0770 N.pl3  86  ARG86       0.1354
     63  N         20.5400   -2.5310    9.7470 N.3   117  GLY117     -0.1225
     64  CA        19.7400   -1.3060    9.8340 C.3   117  GLY117      0.1811
     65  C         18.4010   -1.5290    9.1300 C.2   117  GLY117      0.2280
     66  O         17.4380   -0.7910    9.3160 O.2   117  GLY117     -0.2866
     67  N         20.8910   -2.4580    0.0990 N.3   133  ARG133     -0.1245
     68  CA        21.9030   -3.0830    0.9480 C.3   133  ARG133      0.1563
     69  C         21.5270   -4.5040    1.4290 C.2   133  ARG133      0.2260
     70  O         22.3980   -5.3150    1.7290 O.2   133  ARG133     -0.2867
     71  CB        22.1620   -2.2100    2.1680 C.3   133  ARG133      0.0307
     72  CG        22.6200   -0.7840    1.8230 C.3   133  ARG133      0.0489
     73  CD        24.0240   -0.7620    1.2110 C.3   133  ARG133      0.2205
     74  NE        24.4510    0.6070    0.8790 N.pl3 133  ARG133     -0.0865
     75  CZ        24.9060    1.4300    1.7900 C.cat 133  ARG133      0.5346
     76  NH1       25.0310    1.0390    3.0580 N.pl3 133  ARG133      0.1354
     77  NH2       25.3040    2.6570    1.4460 N.pl3 133  ARG133      0.1354
     78  N         17.4960    4.4530    2.6120 N.3   162  LEU162     -0.1231
     79  CA        18.6880    3.6130    2.6050 C.3   162  LEU162      0.1693
     80  C         18.4200    2.2820    3.2870 C.2   162  LEU162      0.2592
     81  O         18.7440    1.2540    2.7590 O.2   162  LEU162     -0.2718
     82  CB        19.8530    4.3290    3.3130 C.3   162  LEU162      0.0284
     83  CG        21.1630    3.5470    3.3500 C.3   162  LEU162      0.0019
     84  CD1       21.7080    3.3220    1.9430 C.3   162  LEU162      0.0001
     85  CD2       22.1770    4.2870    4.2440 C.3   162  LEU162      0.0001
     86  N         17.8230    2.3070    4.4740 N.am  163  HIS163     -0.1976
     87  CA        17.5000    1.0930    5.1970 C.3   163  HIS163      0.1656
     88  C         16.1030    1.2940    5.7820 C.2   163  HIS163      0.2291
     89  O         15.6660    2.4240    5.9730 O.2   163  HIS163     -0.2864
     90  CB        18.3800    0.8310    6.4350 C.3   163  HIS163      0.0771
     91  CG        19.8340    0.5900    6.1600 C.ar  163  HIS163      0.0820
     92  ND1       20.8070    1.5410    6.3870 N.ar  163  HIS163     -0.2267
     93  CD2       20.4690   -0.4970    5.6920 C.ar  163  HIS163      0.1154
     94  CE1       21.9870    1.0450    6.0480 C.ar  163  HIS163      0.1986
     95  NE2       21.8150   -0.1930    5.6460 N.ar  163  HIS163     -0.2212
     96  N         15.0470    1.1260    8.8650 N.3   165  LYS165     -0.1231
     97  CA        15.0310    1.9530   10.0750 C.3   165  LYS165      0.1693
     98  C         15.3950    3.4200    9.9010 C.2   165  LYS165      0.2592
     99  O         15.3550    4.2000   10.8580 O.2   165  LYS165     -0.2718
    100  CB        15.7620    1.2920   11.2370 C.3   165  LYS165      0.0285
    101  CG        15.0080    0.0450   11.7320 C.3   165  LYS165      0.0035
    102  CD        15.4590   -0.3860   13.1170 C.3   165  LYS165      0.0206
    103  CE        16.9390   -0.7650   13.1640 C.3   165  LYS165      0.1093
    104  NZ        17.1610   -1.7120   14.3350 N.3   165  LYS165     -0.1314
    105  N         15.6490    3.8340    8.6700 N.am  166  THR166     -0.1953
    106  CA        15.8380    5.2350    8.3440 C.3   166  THR166      0.1897
    107  C         14.5140    5.9450    8.5980 C.2   166  THR166      0.2313
    108  O         14.4810    7.1210    8.9860 O.2   166  THR166     -0.2863
    109  CB        16.1690    5.3850    6.8620 C.3   166  THR166      0.1794
    110  OG1       17.5070    4.9100    6.6080 O.3   166  THR166     -0.2208
    111  CG2       16.1440    6.8510    6.4120 C.3   166  THR166      0.0378
    112  N         14.1450    7.9970   13.1220 N.3   205  ASN205     -0.1240
    113  CA        15.1450    7.0500   13.6370 C.3   205  ASN205      0.1653
    114  C         15.4480    7.4480   15.0880 C.2   205  ASN205      0.2266
    115  O         16.0530    8.5030   15.3250 O.2   205  ASN205     -0.2867
    116  CB        16.3880    7.0940   12.7470 C.3   205  ASN205      0.1155
    117  CG        17.4300    6.0390   13.0980 C.2   205  ASN205      0.2627
    118  OD1       17.8190    5.2230   12.2520 O.2   205  ASN205     -0.2716
    119  ND2       17.9220    6.0720   14.2990 N.am  205  ASN205     -0.0877
    120  N         26.0800   11.6190    6.7790 N.3   244  ILE244     -0.1231
    121  CA        26.4060   10.3540    6.1340 C.3   244  ILE244      0.1692
    122  C         25.3100    9.3180    6.4090 C.2   244  ILE244      0.2592
    123  O         25.5830    8.1380    6.6420 O.2   244  ILE244     -0.2718
    124  CB        27.8520    9.8420    6.4420 C.3   244  ILE244      0.0266
    125  CG1       28.1030    9.7630    7.9540 C.3   244  ILE244      0.0019
    126  CG2       28.8810   10.7510    5.7330 C.3   244  ILE244      0.0020
    127  CD1       29.5260    9.2720    8.3260 C.3   244  ILE244      0.0001
    128  N         24.0650    9.7890    6.3780 N.am  245  ASP245     -0.1960
    129  CA        22.8680    8.9510    6.4610 C.3   245  ASP245      0.1840
    130  C         22.7610    8.0030    7.6480 C.2   245  ASP245      0.2622
    131  O         22.2390    6.8950    7.4940 O.2   245  ASP245     -0.2715
    132  CB        22.7580    8.0880    5.1790 C.3   245  ASP245      0.1450
    133  CG        22.6820    8.8920    3.8930 C.2   245  ASP245      0.3671
    134  OD1       22.2170   10.0530    3.9120 O.co2 245  ASP245     -0.2456
    135  OD2       23.1040    8.3900    2.8090 O.co2 245  ASP245     -0.2456
    136  N         23.2140    8.4230    8.8280 N.am  246  GLY246     -0.1954
    137  CA        23.1310    7.5850   10.0170 C.3   246  GLY246      0.1869
    138  C         22.5430    8.3680   11.1910 C.2   246  GLY246      0.2309
    139  O         22.5890    9.6040   11.2010 O.2   246  GLY246     -0.2863
    140  N         19.9900    4.8350   15.9190 N.3   249  SER249     -0.1202
    141  CA        19.8620    3.3710   15.9010 C.3   249  SER249      0.2020
    142  C         21.1350    2.7850   15.3100 C.2   249  SER249      0.2619
    143  O         21.6260    1.7500   15.7130 O.2   249  SER249     -0.2717
    144  CB        18.6590    2.8800   15.0750 C.3   249  SER249      0.2103
    145  OG        18.9880    2.8840   13.7010 O.3   249  SER249     -0.2182
    146  N         21.6880    3.5060   14.3560 N.am  250  SER250     -0.1951
    147  CA        22.8750    3.1030   13.5970 C.3   250  SER250      0.1924
    148  C         24.1280    2.8970   14.4070 C.2   250  SER250      0.2314
    149  O         24.9880    2.0950   14.0230 O.2   250  SER250     -0.2863
    150  CB        23.1950    4.2370   12.6080 C.3   250  SER250      0.2116
    151  OG        21.9680    4.7660   12.1080 O.3   250  SER250     -0.2180
@<TRIPOS>BOND
     1    12    11    2
     2    67    68    1
     3    11    10    1
     4     8     6    1
     5    74    73    1
     6    74    75    2
     7    68    69    1
     8    68    71    1
     9    73    72    1
    10    15    13    1
    11    69    70    2
    12     9    10    1
    13     9     3   am
    14    77    75    1
    15    10    13    1
    16     6     7    1
    17     6     5    1
    18    75    76    1
    19    72    71    1
    20    84    83    1
    21     5     2    1
    22     2     3    1
    23     2     1    1
    24    13    14    1
    25     3     4    2
    26    79    78    1
    27    79    80    1
    28    79    82    1
    29    81    80    2
    30   135   133   ar
    31    52    53    1
    32    80    86   am
    33    82    83    1
    34    83    85    1
    35   133   134   ar
    36   133   132    1
    37    86    87    1
    38    53    54    1
    39    53    56    1
    40    57    56    1
    41    57    58    1
    42    54    55    2
    43    23    21   ar
    44   132   129    1
    45    87    88    1
    46    87    90    1
    47    58    59    1
    48    95    93   ar
    49    95    94   ar
    50    93    91   ar
    51   126   124    1
    52    88    89    2
    53    94    92   ar
    54   121   122    1
    55   121   124    1
    56   121   120    1
    57    91    92   ar
    58    91    90    1
    59    21    22   ar
    60    21    20    1
    61   128   122   am
    62   128   129    1
    63   122   123    2
    64   111   109    1
    65   124   125    1
    66   129   130    1
    67   110   109    1
    68   109   106    1
    69    59    60    2
    70    20    17    1
    71    61    60    1
    72   131   130    2
    73   130   136   am
    74    16    17    1
    75    60    62    1
    76   125   127    1
    77   106   107    1
    78   106   105    1
    79    17    18    1
    80   107   108    2
    81   105    98   am
    82   136   137    1
    83    51    49   ar
    84    96    97    1
    85    49    50   ar
    86    49    48    1
    87    48    45    1
    88    65    66    2
    89    65    64    1
    90    18    19    2
    91    32    30   ar
    92    32    34   ar
    93    47    46    2
    94    63    64    1
    95    30    29   ar
    96    98    97    1
    97    98    99    2
    98   137   138    1
    99    97   100    1
   100    46    45    1
   101    45    44    1
   102    34    33   ar
   103    29    28    1
   104    29    31   ar
   105    28    25    1
   106   138   139    2
   107   100   101    1
   108    44    37   am
   109    33    31   ar
   110    27    26    2
   111   101   102    1
   112   151   150    1
   113   118   117    2
   114    25    24    1
   115    25    26    1
   116    37    38    2
   117    37    36    1
   118   150   147    1
   119   116   117    1
   120   116   113    1
   121    42    41   ar
   122   117   119   am
   123    40    41    1
   124    40    39    1
   125   102   103    1
   126   112   113    1
   127   103   104    1
   128    41    43   ar
   129   147   146    1
   130   147   148    1
   131    39    36    1
   132   113   114    1
   133   145   144    1
   134    36    35    1
   135   149   148    2
   136   146   142   am
   137   144   141    1
   138   114   115    2
   139   142   143    2
   140   142   141    1
   141   141   140    1
