@<TRIPOS>MOLECULE
tmp/1h72A01.pdb
 190 180 0 0 0
SMALL
GASTEIGER

@<TRIPOS>ATOM
      1  N         64.0540   33.8130   30.6790 N.3    50  ASN50      -0.1225
      2  CA        63.0330   33.3480   29.7390 C.3    50  ASN50       0.1785
      3  C         63.5620   33.2570   28.3160 C.2    50  ASN50       0.2597
      4  O         62.8200   32.9170   27.4060 O.2    50  ASN50      -0.2718
      5  CB        61.8360   34.2830   29.7300 C.3    50  ASN50       0.1169
      6  CG        61.1220   34.2960   31.0600 C.2    50  ASN50       0.2627
      7  OD1       60.7610   33.2380   31.5980 O.2    50  ASN50      -0.2716
      8  ND2       60.9370   35.4830   31.6150 N.am   50  ASN50      -0.0877
      9  N         64.8360   33.5910   28.1220 N.am   51  ILE51      -0.1966
     10  CA        65.4220   33.5240   26.7750 C.3    51  ILE51       0.1712
     11  C         66.3050   32.2900   26.7250 C.2    51  ILE51       0.2458
     12  O         67.1250   32.0780   27.6050 O.2    51  ILE51      -0.2730
     13  CB        66.2060   34.8290   26.4760 C.3    51  ILE51       0.0289
     14  CG1       65.1660   35.9760   26.3520 C.3    51  ILE51       0.0022
     15  CG2       67.0180   34.7000   25.1200 C.3    51  ILE51       0.0023
     16  CD1       65.7170   37.3080   26.0750 C.3    51  ILE51       0.0001
     17  N         66.1360   31.4410   25.6990 N.am   52  PRO52      -0.2727
     18  CA        66.9630   30.2270   25.6260 C.3    52  PRO52       0.1402
     19  C         68.4570   30.4380   25.4340 C.2    52  PRO52       0.2269
     20  O         68.8920   31.4310   24.8300 O.2    52  PRO52      -0.2865
     21  CB        66.3410   29.4520   24.4730 C.3    52  PRO52       0.0296
     22  CG        65.7970   30.5910   23.5640 C.3    52  PRO52       0.0237
     23  CD        65.1780   31.5270   24.5730 C.3    52  PRO52       0.0939
     24  N         68.2920   27.9540   19.2350 N.3    57  LYS57      -0.1231
     25  CA        67.0520   28.6310   19.5740 C.3    57  LYS57       0.1693
     26  C         67.2860   30.1360   19.8490 C.2    57  LYS57       0.2592
     27  O         66.4650   30.9590   19.4970 O.2    57  LYS57      -0.2718
     28  CB        66.4240   27.9720   20.7970 C.3    57  LYS57       0.0285
     29  CG        66.0610   26.4940   20.5620 C.3    57  LYS57       0.0035
     30  CD        65.1270   25.9890   21.6570 C.3    57  LYS57       0.0206
     31  CE        64.4950   24.6290   21.2610 C.3    57  LYS57       0.1093
     32  NZ        63.4090   24.2060   22.2310 N.3    57  LYS57      -0.1314
     33  N         68.3980   30.4900   20.4750 N.am   58  ASN58      -0.1960
     34  CA        68.6430   31.9260   20.7180 C.3    58  ASN58       0.1819
     35  C         69.0270   32.5180   19.3550 C.2    58  ASN58       0.2621
     36  O         69.8900   31.9760   18.6640 O.2    58  ASN58      -0.2715
     37  CB        69.7910   32.0960   21.7140 C.3    58  ASN58       0.1195
     38  CG        69.9610   33.5220   22.1570 C.2    58  ASN58       0.2630
     39  OD1       70.2790   34.3970   21.3390 O.2    58  ASN58      -0.2716
     40  ND2       69.7410   33.7800   23.4560 N.am   58  ASN58      -0.0877
     41  N         68.4030   33.6250   18.9650 N.am   59  VAL59      -0.1977
     42  CA        68.7050   34.1880   17.6590 C.3    59  VAL59       0.1596
     43  C         70.1830   34.5510   17.4990 C.2    59  VAL59       0.2287
     44  O         70.7060   34.5120   16.3740 O.2    59  VAL59      -0.2864
     45  CB        67.8330   35.4580   17.3760 C.3    59  VAL59       0.0276
     46  CG1       66.3590   35.0650   17.4010 C.3    59  VAL59       0.0022
     47  CG2       68.1370   36.5680   18.4050 C.3    59  VAL59       0.0022
     48  N         74.8460   37.8840   26.6090 N.3    81  ILE81      -0.1245
     49  CA        73.8540   38.8900   26.3400 C.3    81  ILE81       0.1561
     50  C         73.2210   39.4600   27.5870 C.2    81  ILE81       0.2260
     51  O         72.8190   38.6950   28.4750 O.2    81  ILE81      -0.2867
     52  CB        72.7140   38.2700   25.4840 C.3    81  ILE81       0.0252
     53  CG1       73.2980   37.6920   24.1990 C.3    81  ILE81       0.0019
     54  CG2       71.6120   39.3220   25.2070 C.3    81  ILE81       0.0019
     55  CD1       72.3400   36.6910   23.4910 C.3    81  ILE81       0.0001
     56  N         70.1180   41.7350   28.2470 N.3    83  LYS83      -0.1245
     57  CA        68.9420   42.2640   27.5610 C.3    83  LYS83       0.1561
     58  C         68.4880   43.6640   27.9290 C.2    83  LYS83       0.2260
     59  O         68.4280   44.0400   29.1140 O.2    83  LYS83      -0.2867
     60  CB        67.7390   41.3140   27.7420 C.3    83  LYS83       0.0271
     61  CG        67.9450   39.9070   27.1240 C.3    83  LYS83       0.0035
     62  CD        68.1530   39.9780   25.5990 C.3    83  LYS83       0.0206
     63  CE        67.0140   40.7400   24.8780 C.3    83  LYS83       0.1093
     64  NZ        67.2480   40.6150   23.3710 N.3    83  LYS83      -0.1314
     65  N         61.6040   39.8550   25.4790 N.3    87  ALA87      -0.1231
     66  CA        61.1010   39.4780   24.1870 C.3    87  ALA87       0.1694
     67  C         59.5890   39.7430   24.2120 C.2    87  ALA87       0.2593
     68  O         58.9900   39.8550   25.2880 O.2    87  ALA87      -0.2718
     69  CB        61.3510   37.9760   23.9560 C.3    87  ALA87       0.0304
     70  N         59.0000   39.8490   23.0220 N.am   88  GLY88      -0.1942
     71  CA        57.5670   40.0550   22.8630 C.3    88  GLY88       0.2014
     72  C         57.0780   41.3990   23.3390 C.2    88  GLY88       0.2640
     73  O         55.9280   41.5280   23.7400 O.2    88  GLY88      -0.2714
     74  N         57.9360   42.4140   23.2930 N.am   89  SER89      -0.1935
     75  CA        57.5310   43.7340   23.7510 C.3    89  SER89       0.2055
     76  C         57.1820   44.6720   22.6060 C.2    89  SER89       0.2644
     77  O         56.6220   45.7470   22.8440 O.2    89  SER89      -0.2714
     78  CB        58.6380   44.3640   24.5940 C.3    89  SER89       0.2130
     79  OG        59.8550   44.3970   23.8790 O.3    89  SER89      -0.2179
     80  N         57.5240   44.2750   21.3790 N.am   90  GLY90      -0.1939
     81  CA        57.2120   45.1110   20.2300 C.3    90  GLY90       0.2014
     82  C         58.3260   46.1240   20.0010 C.2    90  GLY90       0.2639
     83  O         58.1800   47.0570   19.1950 O.2    90  GLY90      -0.2714
     84  N         59.4530   45.9260   20.6860 N.am   91  LEU91      -0.1963
     85  CA        60.6150   46.8370   20.5860 C.3    91  LEU91       0.1728
     86  C         61.8380   46.1940   19.8930 C.2    91  LEU91       0.2617
     87  O         62.9740   46.6570   20.0570 O.2    91  LEU91      -0.2715
     88  CB        61.0200   47.3320   21.9810 C.3    91  LEU91       0.0311
     89  CG        59.9910   48.2630   22.6600 C.3    91  LEU91       0.0022
     90  CD1       60.3790   48.4890   24.1200 C.3    91  LEU91       0.0001
     91  CD2       59.8920   49.5870   21.9100 C.3    91  LEU91       0.0001
     92  N         61.5900   45.1370   19.1270 N.am   92  GLY92      -0.1940
     93  CA        62.6780   44.4900   18.3870 C.3    92  GLY92       0.2014
     94  C         63.7380   43.8890   19.2990 C.2    92  GLY92       0.2640
     95  O         64.9250   43.9540   18.9860 O.2    92  GLY92      -0.2714
     96  N         63.3150   43.2860   20.4200 N.am   93  SER93      -0.1935
     97  CA        64.2710   42.6920   21.3490 C.3    93  SER93       0.2055
     98  C         65.1240   41.6100   20.6620 C.2    93  SER93       0.2644
     99  O         66.3390   41.6110   20.7590 O.2    93  SER93      -0.2714
    100  CB        63.5380   42.0170   22.5120 C.3    93  SER93       0.2130
    101  OG        64.4600   41.6280   23.5060 O.3    93  SER93      -0.2179
    102  N         64.4820   40.6700   19.9800 N.am   94  SER94      -0.1935
    103  CA        65.2540   39.6100   19.3350 C.3    94  SER94       0.2055
    104  C         66.0790   40.1820   18.1750 C.2    94  SER94       0.2642
    105  O         67.1990   39.7410   17.9460 O.2    94  SER94      -0.2714
    106  CB        64.3390   38.4660   18.8600 C.3    94  SER94       0.2130
    107  OG        63.5970   38.8280   17.7210 O.3    94  SER94      -0.2179
    108  N         65.5350   41.1650   17.4600 N.am   95  ALA95      -0.1977
    109  CA        66.2640   41.8060   16.3610 C.3    95  ALA95       0.1597
    110  C         67.5220   42.4950   16.9330 C.2    95  ALA95       0.2287
    111  O         68.5580   42.5530   16.2740 O.2    95  ALA95      -0.2864
    112  CB        65.3470   42.8410   15.6480 C.3    95  ALA95       0.0319
    113  N         69.3460   41.3750   19.4050 N.3    97  SER97      -0.1217
    114  CA        70.3090   40.3000   19.5410 C.3    97  SER97       0.1889
    115  C         70.7750   39.8050   18.1710 C.2    97  SER97       0.2288
    116  O         71.9670   39.5290   17.9950 O.2    97  SER97      -0.2866
    117  CB        69.7400   39.1230   20.3540 C.3    97  SER97       0.2089
    118  OG        69.7860   39.4290   21.7630 O.3    97  SER97      -0.2183
    119  N         65.5040   36.5610   12.7430 N.3   126  GLU126     -0.1245
    120  CA        64.1090   36.9340   12.7770 C.3   126  GLU126      0.1567
    121  C         63.2580   35.8090   12.1810 C.2   126  GLU126      0.2260
    122  O         62.1090   35.6250   12.5750 O.2   126  GLU126     -0.2867
    123  CB        63.8980   38.2260   11.9770 C.3   126  GLU126      0.0388
    124  CG        64.4560   39.4770   12.6320 C.3   126  GLU126      0.1160
    125  CD        63.6710   39.8900   13.8920 C.2   126  GLU126      0.3649
    126  OE1       63.7600   39.1540   14.9100 O.co2 126  GLU126     -0.2457
    127  OE2       62.9620   40.9420   13.8570 O.co2 126  GLU126     -0.2457
    128  N         62.7480   33.4450   15.1960 N.3   129  SER129     -0.1202
    129  CA        61.9180   33.9570   16.2770 C.3   129  SER129      0.2020
    130  C         60.5060   34.3630   15.8810 C.2   129  SER129      0.2619
    131  O         59.6230   34.4150   16.7400 O.2   129  SER129     -0.2717
    132  CB        62.6090   35.1360   16.9920 C.3   129  SER129      0.2103
    133  OG        62.5470   36.3230   16.2290 O.3   129  SER129     -0.2182
    134  N         60.2770   34.6600   14.6040 N.am  130  SER130     -0.1951
    135  CA        58.9340   35.0560   14.1770 C.3   130  SER130      0.1924
    136  C         58.3560   34.1530   13.0800 C.2   130  SER130      0.2314
    137  O         57.1800   34.2830   12.7190 O.2   130  SER130     -0.2863
    138  CB        58.9260   36.5180   13.7050 C.3   130  SER130      0.2116
    139  OG        59.5390   36.6520   12.4340 O.3   130  SER130     -0.2180
    140  N         61.5740   38.5540    8.2440 N.3   134  HIS134     -0.1241
    141  CA        61.2950   39.9740    8.1030 C.3   134  HIS134      0.1621
    142  C         62.5510   40.7420    8.5280 C.2   134  HIS134      0.2264
    143  O         63.2870   40.3000    9.4130 O.2   134  HIS134     -0.2867
    144  CB        60.0420   40.3770    8.9180 C.3   134  HIS134      0.0745
    145  CG        60.2270   40.4390   10.4190 C.ar  134  HIS134      0.0817
    146  ND1       60.3300   41.6360   11.1130 N.ar  134  HIS134     -0.2268
    147  CD2       60.1950   39.4660   11.3680 C.ar  134  HIS134      0.1154
    148  CE1       60.3470   41.3970   12.4150 C.ar  134  HIS134      0.1986
    149  NE2       60.2650   40.0870   12.5980 N.ar  134  HIS134     -0.2212
    150  N         62.9150   45.1720   11.5310 N.3   137  ASN137     -0.1240
    151  CA        63.4980   45.6090   12.8160 C.3   137  ASN137      0.1653
    152  C         65.0260   45.4810   12.6870 C.2   137  ASN137      0.2266
    153  O         65.7610   46.3340   13.1770 O.2   137  ASN137     -0.2867
    154  CB        63.0930   44.7360   14.0130 C.3   137  ASN137      0.1155
    155  CG        61.6960   45.0500   14.5160 C.2   137  ASN137      0.2627
    156  OD1       61.4680   46.0110   15.3010 O.2   137  ASN137     -0.2716
    157  ND2       60.7500   44.2740   14.0490 N.am  137  ASN137     -0.0877
    158  N         53.3840   40.1310   23.6720 N.3   177  ILE177     -0.1231
    159  CA        52.5380   39.7640   22.5560 C.3   177  ILE177      0.1692
    160  C         53.4700   39.0140   21.6280 C.2   177  ILE177      0.2592
    161  O         54.5610   39.4890   21.3010 O.2   177  ILE177     -0.2718
    162  CB        51.9660   41.0080   21.8230 C.3   177  ILE177      0.0266
    163  CG1       50.8170   41.6200   22.6570 C.3   177  ILE177      0.0019
    164  CG2       51.4790   40.6120   20.4410 C.3   177  ILE177      0.0020
    165  CD1       50.2300   42.9060   22.0630 C.3   177  ILE177      0.0001
    166  N         53.0330   37.8280   21.2410 N.am  178  ASN178     -0.1960
    167  CA        53.7880   36.9490   20.3550 C.3   178  ASN178      0.1819
    168  C         53.5910   37.4590   18.9180 C.2   178  ASN178      0.2621
    169  O         52.4630   37.5220   18.4440 O.2   178  ASN178     -0.2715
    170  CB        53.2170   35.5380   20.4950 C.3   178  ASN178      0.1195
    171  CG        53.7740   34.5970   19.4710 C.2   178  ASN178      0.2630
    172  OD1       53.2050   34.4320   18.3910 O.2   178  ASN178     -0.2716
    173  ND2       54.9180   33.9910   19.7850 N.am  178  ASN178     -0.0877
    174  N         54.6590   37.8150   18.2250 N.am  179  THR179     -0.1951
    175  CA        54.4910   38.3540   16.8570 C.3   179  THR179      0.1897
    176  C         53.7540   37.4380   15.8740 C.2   179  THR179      0.2313
    177  O         52.8870   37.9080   15.1330 O.2   179  THR179     -0.2863
    178  CB        55.8390   38.8150   16.2750 C.3   179  THR179      0.1794
    179  OG1       56.3140   39.9140   17.0600 O.3   179  THR179     -0.2208
    180  CG2       55.6890   39.3340   14.8490 C.3   179  THR179      0.0378
    181  N         56.0380   48.1590   16.5590 N.3   256  GLY256     -0.1210
    182  CA        56.0740   46.7920   16.0760 C.3   256  GLY256      0.1956
    183  C         54.7550   46.0580   16.2460 C.2   256  GLY256      0.2612
    184  O         53.7070   46.6110   15.9410 O.2   256  GLY256     -0.2717
    185  N         54.7890   44.8160   16.7300 N.am  257  SER257     -0.1952
    186  CA        53.5530   44.0660   16.9350 C.3   257  SER257      0.1924
    187  C         52.9860   44.2860   18.3500 C.2   257  SER257      0.2314
    188  O         52.0490   43.5970   18.7860 O.2   257  SER257     -0.2863
    189  CB        53.7760   42.5660   16.6730 C.3   257  SER257      0.2116
    190  OG        54.9480   42.1560   17.3240 O.3   257  SER257     -0.2180
@<TRIPOS>BOND
     1   141   140    1
     2   141   142    1
     3   141   144    1
     4   142   143    2
     5   144   145    1
     6   145   146   ar
     7   145   147   ar
     8   146   148   ar
     9   147   149   ar
    10   150   151    1
    11   123   124    1
    12   123   120    1
    13   121   122    2
    14   121   120    1
    15   148   149   ar
    16   139   138    1
    17   124   125    1
    18   152   151    1
    19   152   153    2
    20   137   136    2
    21   119   120    1
    22   151   154    1
    23   136   135    1
    24   138   135    1
    25   127   125   ar
    26   125   126   ar
    27   154   155    1
    28   157   155   am
    29   135   134    1
    30   155   156    2
    31   134   130   am
    32   180   178    1
    33   177   176    2
    34   128   129    1
    35   112   109    1
    36   176   175    1
    37   130   129    1
    38   130   131    2
    39   184   183    2
    40   182   183    1
    41   182   181    1
    42   133   132    1
    43   183   185   am
    44   111   110    2
    45   178   175    1
    46   178   179    1
    47   129   132    1
    48   109   110    1
    49   109   108    1
    50    44    43    2
    51   189   186    1
    52   189   190    1
    53   185   186    1
    54   175   174    1
    55   186   187    1
    56    45    46    1
    57    45    42    1
    58    45    47    1
    59   108   104   am
    60    43    42    1
    61    42    41    1
    62   107   106    1
    63   105   104    2
    64   116   115    2
    65   115   114    1
    66   104   103    1
    67   174   168   am
    68   187   188    2
    69    93    92    1
    70    93    94    1
    71   172   171    2
    72   169   168    2
    73    36    35    2
    74   106   103    1
    75   168   167    1
    76    41    35   am
    77    95    94    2
    78    92    86   am
    79    83    82    2
    80    24    25    1
    81    94    96   am
    82   103   102    1
    83    35    34    1
    84   113   114    1
    85   171   173   am
    86   171   170    1
    87    27    26    2
    88   114   117    1
    89    25    26    1
    90    25    28    1
    91    26    33   am
    92    86    87    2
    93    86    85    1
    94   102    98   am
    95    82    81    1
    96    82    84   am
    97    81    80    1
    98   117   118    1
    99   167   170    1
   100   167   166    1
   101    96    97    1
   102   164   162    1
   103    33    34    1
   104    29    28    1
   105    29    30    1
   106    85    84    1
   107    85    88    1
   108    98    99    2
   109    98    97    1
   110    34    37    1
   111   166   160   am
   112    31    30    1
   113    31    32    1
   114   161   160    2
   115    39    38    2
   116    97   100    1
   117    80    76   am
   118   160   159    1
   119    37    38    1
   120   162   159    1
   121   162   163    1
   122    91    89    1
   123    88    89    1
   124   165   163    1
   125    38    40   am
   126   100   101    1
   127   159   158    1
   128    76    77    2
   129    76    75    1
   130    89    90    1
   131    71    70    1
   132    71    72    1
   133    70    67   am
   134    74    72   am
   135    74    75    1
   136    72    73    2
   137    64    63    1
   138    55    53    1
   139    22    21    1
   140    22    23    1
   141    75    78    1
   142    79    78    1
   143    69    66    1
   144    66    67    1
   145    66    65    1
   146    53    52    1
   147    67    68    2
   148    21    18    1
   149    23    17    1
   150    20    19    2
   151    63    62    1
   152    15    13    1
   153    54    52    1
   154    19    18    1
   155    52    49    1
   156    62    61    1
   157    18    17    1
   158    17    11   am
   159    16    14    1
   160    49    48    1
   161    49    50    1
   162    14    13    1
   163    13    10    1
   164    11    10    1
   165    11    12    2
   166    10     9    1
   167    61    60    1
   168     4     3    2
   169    57    60    1
   170    57    58    1
   171    57    56    1
   172    50    51    2
   173    58    59    2
   174     9     3   am
   175     3     2    1
   176     5     2    1
   177     5     6    1
   178     2     1    1
   179     6     7    2
   180     6     8   am
