@<TRIPOS>MOLECULE
tmp/1h72A00.pdb
 105 97 0 0 0
SMALL
GASTEIGER

@<TRIPOS>ATOM
      1  N         59.1530   49.0020   14.6080 N.3    12  ALA12      -0.1231
      2  CA        58.7510   48.7070   13.2390 C.3    12  ALA12       0.1694
      3  C         57.3010   49.1300   12.9950 C.2    12  ALA12       0.2592
      4  O         56.5600   49.4050   13.9390 O.2    12  ALA12      -0.2718
      5  CB        58.8900   47.2140   12.9740 C.3    12  ALA12       0.0304
      6  N         56.9440   49.1610   11.7190 N.am   13  ASN13      -0.1974
      7  CA        55.6210   49.4920   11.1730 C.3    13  ASN13       0.1688
      8  C         55.2900   50.9430   11.0970 C.2    13  ASN13       0.2292
      9  O         55.0160   51.4710    9.9980 O.2    13  ASN13      -0.2864
     10  CB        54.4890   48.8090   11.9320 C.3    13  ASN13       0.1181
     11  CG        54.6340   47.3250   11.9480 C.2    13  ASN13       0.2629
     12  OD1       55.2050   46.7280   11.0210 O.2    13  ASN13      -0.2716
     13  ND2       54.1310   46.7020   13.0080 N.am   13  ASN13      -0.0877
     14  N         53.6290   49.3470    7.7690 N.3    18  PHE18      -0.1227
     15  CA        53.6290   47.9350    8.1650 C.3    18  PHE18       0.1736
     16  C         54.5100   47.0550    7.2760 C.2    18  PHE18       0.2595
     17  O         54.3530   47.0210    6.0280 O.2    18  PHE18      -0.2718
     18  CB        52.1820   47.4030    8.1200 C.3    18  PHE18       0.0547
     19  CG        52.0800   45.9270    8.3560 C.ar   18  PHE18      -0.0202
     20  CD1       52.2280   45.4010    9.6410 C.ar   18  PHE18      -0.0042
     21  CD2       51.8720   45.0560    7.2930 C.ar   18  PHE18      -0.0042
     22  CE1       52.1710   44.0390    9.8530 C.ar   18  PHE18      -0.0003
     23  CE2       51.8130   43.6720    7.5000 C.ar   18  PHE18      -0.0003
     24  CZ        51.9630   43.1660    8.7750 C.ar   18  PHE18      -0.0000
     25  N         55.4530   46.3750    7.9300 N.am   19  ASP19      -0.1974
     26  CA        56.3800   45.4480    7.3290 C.3    19  ASP19       0.1709
     27  C         57.4160   46.1140    6.4490 C.2    19  ASP19       0.2293
     28  O         58.1990   45.4410    5.7930 O.2    19  ASP19      -0.2864
     29  CB        55.6130   44.3820    6.5330 C.3    19  ASP19       0.1436
     30  CG        55.3420   43.1080    7.3430 C.2    19  ASP19       0.3671
     31  OD1       55.5590   43.0590    8.5770 O.co2  19  ASP19      -0.2456
     32  OD2       54.9150   42.1290    6.7130 O.co2  19  ASP19      -0.2456
     33  N         57.5240   44.2750   21.3790 N.3    90  GLY90      -0.1225
     34  CA        57.2120   45.1110   20.2300 C.3    90  GLY90       0.1811
     35  C         58.3260   46.1240   20.0010 C.2    90  GLY90       0.2280
     36  O         58.1800   47.0570   19.1950 O.2    90  GLY90      -0.2866
     37  N         61.5900   45.1370   19.1270 N.3    92  GLY92      -0.1225
     38  CA        62.6780   44.4900   18.3870 C.3    92  GLY92       0.1811
     39  C         63.7380   43.8890   19.2990 C.2    92  GLY92       0.2280
     40  O         64.9250   43.9540   18.9860 O.2    92  GLY92      -0.2866
     41  N         61.5740   38.5540    8.2440 N.3   134  HIS134     -0.1241
     42  CA        61.2950   39.9740    8.1030 C.3   134  HIS134      0.1621
     43  C         62.5510   40.7420    8.5280 C.2   134  HIS134      0.2264
     44  O         63.2870   40.3000    9.4130 O.2   134  HIS134     -0.2867
     45  CB        60.0420   40.3770    8.9180 C.3   134  HIS134      0.0745
     46  CG        60.2270   40.4390   10.4190 C.ar  134  HIS134      0.0817
     47  ND1       60.3300   41.6360   11.1130 N.ar  134  HIS134     -0.2268
     48  CD2       60.1950   39.4660   11.3680 C.ar  134  HIS134      0.1154
     49  CE1       60.3470   41.3970   12.4150 C.ar  134  HIS134      0.1986
     50  NE2       60.2650   40.0870   12.5980 N.ar  134  HIS134     -0.2212
     51  N         62.3860   44.2740    8.8840 N.3   136  ASP136     -0.1225
     52  CA        62.0330   45.6110    9.2580 C.3   136  ASP136      0.1805
     53  C         62.4910   46.0840   10.6560 C.2   136  ASP136      0.2597
     54  O         62.4270   47.2760   10.9330 O.2   136  ASP136     -0.2718
     55  CB        60.5350   45.8630    9.0090 C.3   136  ASP136      0.1424
     56  CG        59.6320   44.8300    9.6550 C.2   136  ASP136      0.3668
     57  OD1       60.0180   43.6410    9.7640 O.co2 136  ASP136     -0.2456
     58  OD2       58.5130   45.2240   10.0320 O.co2 136  ASP136     -0.2456
     59  N         62.9150   45.1720   11.5310 N.am  137  ASN137     -0.1974
     60  CA        63.4980   45.6090   12.8160 C.3   137  ASN137      0.1688
     61  C         65.0260   45.4810   12.6870 C.2   137  ASN137      0.2292
     62  O         65.7610   46.3340   13.1770 O.2   137  ASN137     -0.2864
     63  CB        63.0930   44.7360   14.0130 C.3   137  ASN137      0.1181
     64  CG        61.6960   45.0500   14.5160 C.2   137  ASN137      0.2629
     65  OD1       61.4680   46.0110   15.3010 O.2   137  ASN137     -0.2716
     66  ND2       60.7500   44.2740   14.0490 N.am  137  ASN137     -0.0877
     67  N         54.6590   37.8150   18.2250 N.3   179  THR179     -0.1218
     68  CA        54.4910   38.3540   16.8570 C.3   179  THR179      0.1862
     69  C         53.7540   37.4380   15.8740 C.2   179  THR179      0.2287
     70  O         52.8870   37.9080   15.1330 O.2   179  THR179     -0.2866
     71  CB        55.8390   38.8150   16.2750 C.3   179  THR179      0.1770
     72  OG1       56.3140   39.9140   17.0600 O.3   179  THR179     -0.2211
     73  CG2       55.6890   39.3340   14.8490 C.3   179  THR179      0.0375
     74  N         50.3140   38.4930   13.9150 N.3   183  ARG183     -0.1245
     75  CA        50.1720   38.4770   12.4580 C.3   183  ARG183      0.1563
     76  C         48.9930   37.5830   11.9890 C.2   183  ARG183      0.2260
     77  O         48.2890   37.9060   11.0200 O.2   183  ARG183     -0.2867
     78  CB        51.4900   38.0230   11.8270 C.3   183  ARG183      0.0307
     79  CG        52.6250   39.0480   12.0470 C.3   183  ARG183      0.0489
     80  CD        53.9360   38.6000   11.4240 C.3   183  ARG183      0.2205
     81  NE        53.8960   38.6980    9.9610 N.pl3 183  ARG183     -0.0865
     82  CZ        54.1990   39.8090    9.2830 C.cat 183  ARG183      0.5346
     83  NH1       54.5670   40.9180    9.9380 N.pl3 183  ARG183      0.1354
     84  NH2       54.1580   39.8110    7.9530 N.pl3 183  ARG183      0.1354
     85  N         45.6710   45.1410   16.3210 N.3   231  ARG231     -0.1245
     86  CA        46.6170   44.9000   17.3870 C.3   231  ARG231      0.1563
     87  C         46.3180   45.8110   18.5730 C.2   231  ARG231      0.2260
     88  O         46.6010   45.4540   19.6960 O.2   231  ARG231     -0.2867
     89  CB        48.0740   45.1740   16.9550 C.3   231  ARG231      0.0307
     90  CG        48.9230   43.9870   16.4110 C.3   231  ARG231      0.0489
     91  CD        48.8570   43.9170   14.9060 C.3   231  ARG231      0.2205
     92  NE        49.6860   42.8510   14.3530 N.pl3 231  ARG231     -0.0865
     93  CZ        50.9420   42.9950   13.9370 C.cat 231  ARG231      0.5346
     94  NH1       51.5660   44.1760   13.9940 N.pl3 231  ARG231      0.1354
     95  NH2       51.5680   41.9410   13.4660 N.pl3 231  ARG231      0.1354
     96  N         56.0380   48.1590   16.5590 N.3   256  GLY256     -0.1210
     97  CA        56.0740   46.7920   16.0760 C.3   256  GLY256      0.1956
     98  C         54.7550   46.0580   16.2460 C.2   256  GLY256      0.2612
     99  O         53.7070   46.6110   15.9410 O.2   256  GLY256     -0.2717
    100  N         54.7890   44.8160   16.7300 N.am  257  SER257     -0.1952
    101  CA        53.5530   44.0660   16.9350 C.3   257  SER257      0.1924
    102  C         52.9860   44.2860   18.3500 C.2   257  SER257      0.2314
    103  O         52.0490   43.5970   18.7860 O.2   257  SER257     -0.2863
    104  CB        53.7760   42.5660   16.6730 C.3   257  SER257      0.2116
    105  OG        54.9480   42.1560   17.3240 O.3   257  SER257     -0.2180
@<TRIPOS>BOND
     1    28    27    2
     2    17    16    2
     3    27    26    1
     4    29    26    1
     5    29    30    1
     6    32    30   ar
     7    16    25   am
     8    16    15    1
     9    21    23   ar
    10    21    19   ar
    11    26    25    1
    12    30    31   ar
    13    23    24   ar
    14    14    15    1
    15    84    82    1
    16    42    41    1
    17    42    43    1
    18    42    45    1
    19    18    15    1
    20    18    19    1
    21    19    20   ar
    22    43    44    2
    23    24    22   ar
    24    51    52    1
    25    45    46    1
    26    55    52    1
    27    55    56    1
    28    52    53    1
    29    82    83    1
    30    82    81    2
    31    20    22   ar
    32    56    57   ar
    33    56    58   ar
    34    81    80    1
    35     9     8    2
    36    46    47   ar
    37    46    48   ar
    38    53    54    2
    39    53    59   am
    40    77    76    2
    41    12    11    2
    42     8     7    1
    43    47    49   ar
    44     7     6    1
    45     7    10    1
    46    48    50   ar
    47    80    79    1
    48    59    60    1
    49     6     3   am
    50    78    79    1
    51    78    75    1
    52    10    11    1
    53    11    13   am
    54    76    75    1
    55    49    50   ar
    56    75    74    1
    57    61    60    1
    58    61    62    2
    59    60    63    1
    60     5     2    1
    61     3     2    1
    62     3     4    2
    63     2     1    1
    64    95    93    1
    65    93    94    1
    66    93    92    2
    67    63    64    1
    68    66    64   am
    69    92    91    1
    70    64    65    2
    71    73    71    1
    72    91    90    1
    73    70    69    2
    74    69    68    1
    75    99    98    2
    76    97    98    1
    77    97    96    1
    78    98   100   am
    79    71    68    1
    80    71    72    1
    81    85    86    1
    82    90    89    1
    83   104   101    1
    84   104   105    1
    85   100   101    1
    86    68    67    1
    87   101   102    1
    88    89    86    1
    89    86    87    1
    90   102   103    2
    91    38    37    1
    92    38    39    1
    93    87    88    2
    94    40    39    2
    95    36    35    2
    96    35    34    1
    97    34    33    1
