@<TRIPOS>MOLECULE
tmp/1h73A00.pdb
 97 91 0 0 0
SMALL
GASTEIGER

@<TRIPOS>ATOM
      1  N         60.0250   49.5580   14.4500 N.3    12  ALA12      -0.1231
      2  CA        59.6130   49.2830   13.0870 C.3    12  ALA12       0.1694
      3  C         58.1400   49.6320   12.8570 C.2    12  ALA12       0.2592
      4  O         57.3920   49.8530   13.8100 O.2    12  ALA12      -0.2718
      5  CB        59.8520   47.8050   12.7660 C.3    12  ALA12       0.0304
      6  N         57.7540   49.6560   11.5880 N.am   13  ASN13      -0.1974
      7  CA        56.3940   49.9600   11.1190 C.3    13  ASN13       0.1688
      8  C         56.0640   51.4220   11.0960 C.2    13  ASN13       0.2292
      9  O         55.8190   51.9770   10.0290 O.2    13  ASN13      -0.2864
     10  CB        55.3100   49.2450   11.9450 C.3    13  ASN13       0.1181
     11  CG        55.4430   47.7400   11.9120 C.2    13  ASN13       0.2629
     12  OD1       55.9930   47.1510   10.9750 O.2    13  ASN13      -0.2716
     13  ND2       54.9160   47.1010   12.9350 N.am   13  ASN13      -0.0877
     14  N         54.3800   49.9240    7.7540 N.3    18  PHE18      -0.1227
     15  CA        54.3450   48.5020    8.1340 C.3    18  PHE18       0.1736
     16  C         55.2300   47.6060    7.2580 C.2    18  PHE18       0.2595
     17  O         55.0780   47.5590    6.0440 O.2    18  PHE18      -0.2718
     18  CB        52.8830   48.0010    8.0980 C.3    18  PHE18       0.0547
     19  CG        52.7340   46.5050    8.2600 C.ar   18  PHE18      -0.0202
     20  CD1       52.9190   45.8920    9.4990 C.ar   18  PHE18      -0.0042
     21  CD2       52.4670   45.7080    7.1550 C.ar   18  PHE18      -0.0042
     22  CE1       52.8500   44.4980    9.6240 C.ar   18  PHE18      -0.0003
     23  CE2       52.3930   44.3140    7.2680 C.ar   18  PHE18      -0.0003
     24  CZ        52.5840   43.7020    8.4920 C.ar   18  PHE18      -0.0000
     25  N         56.1850   46.9270    7.9010 N.am   19  ASP19      -0.1974
     26  CA        57.1170   46.0020    7.2610 C.3    19  ASP19       0.1709
     27  C         58.1470   46.6670    6.3550 C.2    19  ASP19       0.2293
     28  O         58.9080   45.9860    5.6810 O.2    19  ASP19      -0.2864
     29  CB        56.3550   44.9180    6.4850 C.3    19  ASP19       0.1436
     30  CG        56.0460   43.6620    7.3430 C.2    19  ASP19       0.3671
     31  OD1       56.3060   43.6480    8.5570 O.co2  19  ASP19      -0.2456
     32  OD2       55.5420   42.6790    6.7770 O.co2  19  ASP19      -0.2456
     33  N         63.0420   38.7230    7.9910 N.3   134  HIS134     -0.1241
     34  CA        62.6180   40.1180    8.1340 C.3   134  HIS134      0.1621
     35  C         63.8150   41.0270    8.4710 C.2   134  HIS134      0.2264
     36  O         64.6280   40.6890    9.3390 O.2   134  HIS134     -0.2867
     37  CB        61.5440   40.2150    9.2110 C.3   134  HIS134      0.0745
     38  CG        60.2750   39.5130    8.8380 C.ar  134  HIS134      0.0817
     39  ND1       59.4590   39.9520    7.8160 N.ar  134  HIS134     -0.2268
     40  CD2       59.7040   38.3810    9.3180 C.ar  134  HIS134      0.1154
     41  CE1       58.4380   39.1210    7.6820 C.ar  134  HIS134      0.1986
     42  NE2       58.5630   38.1590    8.5820 N.ar  134  HIS134     -0.2212
     43  N         63.3850   44.7360    8.7620 N.3   136  ASP136     -0.1225
     44  CA        63.0160   46.0910    9.1520 C.3   136  ASP136      0.1805
     45  C         63.4880   46.6010   10.5200 C.2   136  ASP136      0.2597
     46  O         63.4490   47.8050   10.7710 O.2   136  ASP136     -0.2718
     47  CB        61.5160   46.3500    8.8930 C.3   136  ASP136      0.1424
     48  CG        60.5860   45.3080    9.5340 C.2   136  ASP136      0.3668
     49  OD1       60.9450   44.1230    9.6530 O.co2 136  ASP136     -0.2456
     50  OD2       59.4570   45.6830    9.8850 O.co2 136  ASP136     -0.2456
     51  N         63.9340   45.7090   11.4010 N.am  137  ASN137     -0.1974
     52  CA        64.5330   46.1160   12.6780 C.3   137  ASN137      0.1688
     53  C         66.0590   46.0120   12.5450 C.2   137  ASN137      0.2292
     54  O         66.7820   46.8990   13.0080 O.2   137  ASN137     -0.2864
     55  CB        64.1160   45.2380   13.8770 C.3   137  ASN137      0.1181
     56  CG        62.7200   45.5640   14.3810 C.2   137  ASN137      0.2629
     57  OD1       62.4960   46.5320   15.1210 O.2   137  ASN137     -0.2716
     58  ND2       61.7750   44.7670   13.9680 N.am  137  ASN137     -0.0877
     59  N         55.3580   38.0450   18.2120 N.3   179  THR179     -0.1218
     60  CA        55.1780   38.5960   16.8660 C.3   179  THR179      0.1862
     61  C         54.4610   37.6960   15.8540 C.2   179  THR179      0.2287
     62  O         53.6840   38.1880   15.0490 O.2   179  THR179     -0.2866
     63  CB        56.5160   39.1070   16.2820 C.3   179  THR179      0.1770
     64  OG1       56.9980   40.1690   17.1120 O.3   179  THR179     -0.2211
     65  CG2       56.3130   39.7000   14.8780 C.3   179  THR179      0.0375
     66  N         51.0200   38.8130   13.8880 N.3   183  ARG183     -0.1245
     67  CA        50.8660   38.7950   12.4450 C.3   183  ARG183      0.1563
     68  C         49.6440   37.9600   11.9970 C.2   183  ARG183      0.2260
     69  O         48.9040   38.3770   11.0860 O.2   183  ARG183     -0.2867
     70  CB        52.1810   38.3130   11.8030 C.3   183  ARG183      0.0307
     71  CG        53.3220   39.3410   11.9870 C.3   183  ARG183      0.0489
     72  CD        54.6470   38.9230   11.3200 C.3   183  ARG183      0.2205
     73  NE        54.6130   39.0630    9.8650 N.pl3 183  ARG183     -0.0865
     74  CZ        54.9450   40.1740    9.2010 C.cat 183  ARG183      0.5346
     75  NH1       55.3390   41.2510    9.8550 N.pl3 183  ARG183      0.1354
     76  NH2       54.9050   40.1980    7.8730 N.pl3 183  ARG183      0.1354
     77  N         46.1920   45.7940   16.2820 N.3   231  ARG231     -0.1245
     78  CA        47.1380   45.4810   17.3250 C.3   231  ARG231      0.1563
     79  C         47.0170   46.3750   18.5470 C.2   231  ARG231      0.2260
     80  O         47.4010   45.9750   19.6280 O.2   231  ARG231     -0.2867
     81  CB        48.5350   45.5330   16.7640 C.3   231  ARG231      0.0307
     82  CG        48.7400   44.4020   15.7690 C.3   231  ARG231      0.0489
     83  CD        50.0190   44.6140   15.1010 C.3   231  ARG231      0.2205
     84  NE        50.5540   43.4030   14.4970 N.pl3 231  ARG231     -0.0865
     85  CZ        51.6890   43.4040   13.8220 C.cat 231  ARG231      0.5346
     86  NH1       52.3520   44.5530   13.6880 N.pl3 231  ARG231      0.1354
     87  NH2       52.1580   42.2810   13.3000 N.pl3 231  ARG231      0.1354
     88  N         56.8400   48.5790   16.4660 N.3   256  GLY256     -0.1210
     89  CA        56.8940   47.2150   15.9530 C.3   256  GLY256      0.1956
     90  C         55.5520   46.5450   16.1150 C.2   256  GLY256      0.2612
     91  O         54.4900   47.1380   15.7990 O.2   256  GLY256     -0.2717
     92  N         55.5740   45.3180   16.6270 N.am  257  SER257     -0.1952
     93  CA        54.3330   44.6070   16.8350 C.3   257  SER257      0.1924
     94  C         53.7640   44.8460   18.2500 C.2   257  SER257      0.2314
     95  O         52.8010   44.2020   18.6720 O.2   257  SER257     -0.2863
     96  CB        54.5380   43.1100   16.5300 C.3   257  SER257      0.2116
     97  OG        55.6960   42.6100   17.1880 O.3   257  SER257     -0.2180
@<TRIPOS>BOND
     1    28    27    2
     2    17    16    2
     3    27    26    1
     4    29    26    1
     5    29    30    1
     6    32    30   ar
     7    21    23   ar
     8    21    19   ar
     9    16    25   am
    10    16    15    1
    11    26    25    1
    12    23    24   ar
    13    30    31   ar
    14    41    39   ar
    15    41    42   ar
    16    14    15    1
    17    39    38   ar
    18    76    74    1
    19    33    34    1
    20    18    15    1
    21    18    19    1
    22    34    35    1
    23    34    37    1
    24    19    20   ar
    25    35    36    2
    26    24    22   ar
    27    42    40   ar
    28    43    44    1
    29    38    37    1
    30    38    40   ar
    31    47    44    1
    32    47    48    1
    33    44    45    1
    34    74    75    1
    35    74    73    2
    36    20    22   ar
    37    48    49   ar
    38    48    50   ar
    39    73    72    1
    40     9     8    2
    41    45    46    2
    42    45    51   am
    43    12    11    2
    44    69    68    2
    45     8     7    1
    46     7     6    1
    47     7    10    1
    48    72    71    1
    49    51    52    1
    50     6     3   am
    51    70    71    1
    52    70    67    1
    53    11    10    1
    54    11    13   am
    55    68    67    1
    56    67    66    1
    57    53    52    1
    58    53    54    2
    59    52    55    1
    60     5     2    1
    61     3     2    1
    62     3     4    2
    63     2     1    1
    64    87    85    1
    65    86    85    1
    66    85    84    2
    67    55    56    1
    68    58    56   am
    69    56    57    2
    70    84    83    1
    71    65    63    1
    72    62    61    2
    73    83    82    1
    74    82    81    1
    75    91    90    2
    76    61    60    1
    77    89    90    1
    78    89    88    1
    79    90    92   am
    80    77    78    1
    81    63    60    1
    82    63    64    1
    83    96    93    1
    84    96    97    1
    85    92    93    1
    86    81    78    1
    87    93    94    1
    88    60    59    1
    89    78    79    1
    90    94    95    2
    91    79    80    2
