@<TRIPOS>MOLECULE
tmp/1h74B00.pdb
 105 97 0 0 0
SMALL
GASTEIGER

@<TRIPOS>ATOM
      1  N         46.0900   23.9250   99.7200 N.3    12  ALA12      -0.1231
      2  CA        46.3430   23.5660   98.3190 C.3    12  ALA12       0.1694
      3  C         45.0660   23.1510   97.5870 C.2    12  ALA12       0.2592
      4  O         44.0430   22.8790   98.2200 O.2    12  ALA12      -0.2718
      5  CB        47.3680   22.4390   98.2340 C.3    12  ALA12       0.0304
      6  N         45.1490   23.1340   96.2590 N.am   13  ASN13      -0.1974
      7  CA        44.0560   22.7450   95.3560 C.3    13  ASN13       0.1688
      8  C         43.0780   23.8570   94.9740 C.2    13  ASN13       0.2292
      9  O         42.9630   24.2170   93.7940 O.2    13  ASN13      -0.2864
     10  CB        43.2740   21.5560   95.9150 C.3    13  ASN13       0.1181
     11  CG        44.1110   20.2630   95.9930 C.2    13  ASN13       0.2629
     12  OD1       45.2120   20.1720   95.4600 O.2    13  ASN13      -0.2716
     13  ND2       43.5570   19.2580   96.6470 N.am   13  ASN13      -0.0877
     14  N         43.5270   21.8710   91.4530 N.3    18  PHE18      -0.1227
     15  CA        44.0850   20.6180   91.9770 C.3    18  PHE18       0.1736
     16  C         45.5540   20.3760   91.5760 C.2    18  PHE18       0.2595
     17  O         45.8790   20.3850   90.4120 O.2    18  PHE18      -0.2718
     18  CB        43.2110   19.4300   91.5180 C.3    18  PHE18       0.0547
     19  CG        43.7450   18.0720   91.9420 C.ar   18  PHE18      -0.0202
     20  CD1       43.5440   17.6020   93.2350 C.ar   18  PHE18      -0.0042
     21  CD2       44.4300   17.2690   91.0370 C.ar   18  PHE18      -0.0042
     22  CE1       44.0170   16.3330   93.6390 C.ar   18  PHE18      -0.0003
     23  CE2       44.9140   16.0000   91.4180 C.ar   18  PHE18      -0.0003
     24  CZ        44.7050   15.5320   92.7200 C.ar   18  PHE18      -0.0000
     25  N         46.4240   20.1420   92.5580 N.am   19  ASP19      -0.1974
     26  CA        47.8640   19.8780   92.3420 C.3    19  ASP19       0.1709
     27  C         48.6630   21.0090   91.7290 C.2    19  ASP19       0.2293
     28  O         49.8070   20.8160   91.2930 O.2    19  ASP19      -0.2864
     29  CB        48.1080   18.6100   91.5010 C.3    19  ASP19       0.1436
     30  CG        47.9100   17.3080   92.3040 C.2    19  ASP19       0.3671
     31  OD1       47.9560   17.3360   93.5430 O.co2  19  ASP19      -0.2456
     32  OD2       47.7120   16.2490   91.6850 O.co2  19  ASP19      -0.2456
     33  N         44.7550   18.6280  106.1670 N.3    90  GLY90      -0.1225
     34  CA        44.7000   19.2790  104.8730 C.3    90  GLY90       0.1811
     35  C         45.1090   20.7370  104.9230 C.2    90  GLY90       0.2280
     36  O         44.6760   21.5050  104.0670 O.2    90  GLY90      -0.2866
     37  N         48.5730   21.7210  105.3090 N.3    92  GLY92      -0.1225
     38  CA        50.0050   21.8000  105.1120 C.3    92  GLY92       0.1811
     39  C         50.8350   21.8740  106.3840 C.2    92  GLY92       0.2280
     40  O         51.8010   22.6330  106.4490 O.2    92  GLY92      -0.2866
     41  N         55.6930   16.7160   96.3470 N.3   134  HIS134     -0.1241
     42  CA        54.6690   17.7480   96.5670 C.3   134  HIS134      0.1621
     43  C         55.1970   19.1440   96.9020 C.2   134  HIS134      0.2264
     44  O         55.7020   19.3780   98.0000 O.2   134  HIS134     -0.2867
     45  CB        53.7120   17.3210   97.6780 C.3   134  HIS134      0.0745
     46  CG        52.7960   16.2090   97.2840 C.ar  134  HIS134      0.0817
     47  ND1       52.0780   16.2240   96.1070 N.ar  134  HIS134     -0.2268
     48  CD2       52.4790   15.0480   97.9050 C.ar  134  HIS134      0.1154
     49  CE1       51.3620   15.1180   96.0160 C.ar  134  HIS134      0.1986
     50  NE2       51.5860   14.3860   97.0940 N.ar  134  HIS134     -0.2212
     51  N         53.1460   22.0040   96.1460 N.3   136  ASP136     -0.1225
     52  CA        52.0250   22.9400   96.2200 C.3   136  ASP136      0.1805
     53  C         51.6370   23.5150   97.5800 C.2   136  ASP136      0.2597
     54  O         50.8420   24.4560   97.6260 O.2   136  ASP136     -0.2718
     55  CB        50.7800   22.3880   95.4770 C.3   136  ASP136      0.1424
     56  CG        50.4320   20.9570   95.8450 C.2   136  ASP136      0.3668
     57  OD1       51.3570   20.1200   95.9860 O.co2 136  ASP136     -0.2456
     58  OD2       49.2170   20.6590   95.9540 O.co2 136  ASP136     -0.2456
     59  N         52.1830   22.9690   98.6750 N.am  137  ASN137     -0.1974
     60  CA        51.9270   23.5200  100.0190 C.3   137  ASN137      0.1688
     61  C         53.1990   24.2490  100.4570 C.2   137  ASN137      0.2292
     62  O         53.1660   25.2900  101.1100 O.2   137  ASN137     -0.2864
     63  CB        51.6100   22.4230  101.0400 C.3   137  ASN137      0.1181
     64  CG        50.1760   21.9760  100.9920 C.2   137  ASN137      0.2629
     65  OD1       49.2820   22.6040  101.5770 O.2   137  ASN137     -0.2716
     66  ND2       49.9350   20.8960  100.2790 N.am  137  ASN137     -0.0877
     67  N         44.7360   10.4450  103.6720 N.3   179  THR179     -0.1218
     68  CA        45.3270   11.1560  102.5340 C.3   179  THR179      0.1862
     69  C         45.5960   10.2700  101.3140 C.2   179  THR179      0.2287
     70  O         45.2410   10.6280  100.1840 O.2   179  THR179     -0.2866
     71  CB        46.6730   11.8300  102.9490 C.3   179  THR179      0.1770
     72  OG1       46.4040   12.9940  103.7430 O.3   179  THR179     -0.2211
     73  CG2       47.4980   12.2200  101.7220 C.3   179  THR179      0.0375
     74  N         43.3650    9.2820   97.5020 N.3   183  ARG183     -0.1245
     75  CA        44.0430    9.3570   96.2190 C.3   183  ARG183      0.1563
     76  C         43.5480    8.2410   95.2990 C.2   183  ARG183      0.2260
     77  O         43.0580    8.5020   94.2010 O.2   183  ARG183     -0.2867
     78  CB        45.5560    9.2240   96.4190 C.3   183  ARG183      0.0307
     79  CG        46.2400   10.4750   96.9280 C.3   183  ARG183      0.0489
     80  CD        46.7820   11.2810   95.7680 C.3   183  ARG183      0.2205
     81  NE        47.4410   12.5070   96.2070 N.pl3 183  ARG183     -0.0865
     82  CZ        48.0590   13.3570   95.3910 C.cat 183  ARG183      0.5346
     83  NH1       48.1110   13.1200   94.0860 N.pl3 183  ARG183      0.1354
     84  NH2       48.6180   14.4560   95.8800 N.pl3 183  ARG183      0.1354
     85  N         35.7830   13.5080   96.8080 N.3   231  ARG231     -0.1245
     86  CA        36.3660   13.7950   98.1170 C.3   231  ARG231      0.1563
     87  C         35.4060   14.3870   99.1140 C.2   231  ARG231      0.2260
     88  O         35.4780   14.0560  100.2880 O.2   231  ARG231     -0.2867
     89  CB        37.5600   14.7330   97.9940 C.3   231  ARG231      0.0307
     90  CG        38.8550   14.0250   98.2000 C.3   231  ARG231      0.0489
     91  CD        40.0060   14.8990   97.8360 C.3   231  ARG231      0.2205
     92  NE        41.2170   14.1360   97.5830 N.pl3 231  ARG231     -0.0865
     93  CZ        42.3590   14.7100   97.2430 C.cat 231  ARG231      0.5346
     94  NH1       42.4020   16.0390   97.1230 N.pl3 231  ARG231      0.1354
     95  NH2       43.4460   13.9770   97.0340 N.pl3 231  ARG231      0.1354
     96  N         43.2080   21.3140  100.5600 N.3   256  GLY256     -0.1210
     97  CA        44.0630   20.1730  100.3160 C.3   256  GLY256      0.1956
     98  C         43.2090   18.9420  100.1240 C.2   256  GLY256      0.2612
     99  O         42.1410   18.9970   99.5170 O.2   256  GLY256     -0.2717
    100  N         43.6560   17.8200  100.6700 N.am  257  SER257     -0.1952
    101  CA        42.8920   16.5980  100.5260 C.3   257  SER257      0.1924
    102  C         41.8450   16.4590  101.6110 C.2   257  SER257      0.2314
    103  O         41.1950   15.4260  101.7160 O.2   257  SER257     -0.2863
    104  CB        43.8260   15.3660  100.5110 C.3   257  SER257      0.2116
    105  OG        44.6840   15.3570  101.6370 O.3   257  SER257     -0.2180
@<TRIPOS>BOND
     1    17    16    2
     2    21    23   ar
     3    21    19   ar
     4    28    27    2
     5    23    24   ar
     6    14    15    1
     7    29    30    1
     8    29    26    1
     9    18    19    1
    10    18    15    1
    11    16    15    1
    12    16    25   am
    13    32    30   ar
    14    27    26    1
    15    19    20   ar
    16    30    31   ar
    17    26    25    1
    18    24    22   ar
    19    20    22   ar
    20     9     8    2
    21    83    82    1
    22    77    76    2
    23     8     7    1
    24    76    75    1
    25     7    10    1
    26     7     6    1
    27    82    84    1
    28    82    81    2
    29    12    11    2
    30    55    56    1
    31    55    52    1
    32    80    81    1
    33    80    79    1
    34    56    58   ar
    35    56    57   ar
    36    10    11    1
    37    11    13   am
    38    49    47   ar
    39    49    50   ar
    40    47    46   ar
    41    51    52    1
    42    75    78    1
    43    75    74    1
    44    52    53    1
    45     6     3   am
    46    41    42    1
    47    78    79    1
    48    42    43    1
    49    42    45    1
    50    85    86    1
    51    43    44    2
    52    95    93    1
    53    50    48   ar
    54    94    93    1
    55    93    92    2
    56    46    45    1
    57    46    48   ar
    58    53    54    2
    59    53    59   am
    60    92    91    1
    61     3     4    2
    62     3     2    1
    63    91    90    1
    64    89    86    1
    65    89    90    1
    66    86    87    1
    67     5     2    1
    68     2     1    1
    69    59    60    1
    70    87    88    2
    71    99    98    2
    72    60    61    1
    73    60    63    1
    74    98    97    1
    75    98   100   am
    76    70    69    2
    77    66    64   am
    78    97    96    1
    79    61    62    2
    80   104   101    1
    81   104   105    1
    82   101   100    1
    83   101   102    1
    84    64    63    1
    85    64    65    2
    86    69    68    1
    87   102   103    2
    88    73    71    1
    89    68    71    1
    90    68    67    1
    91    71    72    1
    92    36    35    2
    93    34    35    1
    94    34    33    1
    95    38    37    1
    96    38    39    1
    97    39    40    2
