@<TRIPOS>MOLECULE
tmp/1h74B01.pdb
 182 172 0 0 0
SMALL
GASTEIGER

@<TRIPOS>ATOM
      1  N         52.9470   13.3580  119.1410 N.3    50  ASN50      -0.1225
      2  CA        52.5420   12.5630  117.9910 C.3    50  ASN50       0.1785
      3  C         53.4670   12.7520  116.7860 C.2    50  ASN50       0.2597
      4  O         53.4090   11.9820  115.8240 O.2    50  ASN50      -0.2718
      5  CB        51.1020   12.8900  117.6120 C.3    50  ASN50       0.1169
      6  CG        50.2220   11.6630  117.5890 C.2    50  ASN50       0.2627
      7  OD1       50.4560   10.7330  116.8140 O.2    50  ASN50      -0.2716
      8  ND2       49.2050   11.6460  118.4440 N.am   50  ASN50      -0.0877
      9  N         54.3200   13.7730  116.8430 N.am   51  ILE51      -0.1966
     10  CA        55.2700   14.0400  115.7620 C.3    51  ILE51       0.1712
     11  C         56.5980   13.3460  116.0670 C.2    51  ILE51       0.2458
     12  O         57.1980   13.5880  117.1140 O.2    51  ILE51      -0.2730
     13  CB        55.5510   15.5630  115.5880 C.3    51  ILE51       0.0289
     14  CG1       54.3050   16.2850  115.0780 C.3    51  ILE51       0.0022
     15  CG2       56.6940   15.7750  114.6000 C.3    51  ILE51       0.0023
     16  CD1       53.2090   16.3770  116.0880 C.3    51  ILE51       0.0001
     17  N         57.0720   12.4780  115.1540 N.am   52  PRO52      -0.2727
     18  CA        58.3310   11.7460  115.3190 C.3    52  PRO52       0.1402
     19  C         59.5350   12.6520  115.5850 C.2    52  PRO52       0.2269
     20  O         59.9280   13.4380  114.7230 O.2    52  PRO52      -0.2865
     21  CB        58.4610   10.9950  113.9970 C.3    52  PRO52       0.0296
     22  CG        57.0390   10.7260  113.6300 C.3    52  PRO52       0.0237
     23  CD        56.3890   12.0560  113.9180 C.3    52  PRO52       0.0939
     24  N         62.7650   10.6200  110.7480 N.3    57  LYS57      -0.1231
     25  CA        61.3470   10.7330  110.4210 C.3    57  LYS57       0.1693
     26  C         60.8890   12.1930  110.2720 C.2    57  LYS57       0.2592
     27  O         60.5020   12.6220  109.1860 O.2    57  LYS57      -0.2718
     28  CB        60.5230   10.0510  111.5170 C.3    57  LYS57       0.0285
     29  CG        59.2700    9.3200  111.0370 C.3    57  LYS57       0.0035
     30  CD        59.6100    7.9500  110.4640 C.3    57  LYS57       0.0206
     31  CE        58.3600    7.1020  110.2800 C.3    57  LYS57       0.1093
     32  NZ        58.6830    5.7370  109.7740 N.3    57  LYS57      -0.1314
     33  N         60.9280   12.9480  111.3660 N.am   58  ASN58      -0.1960
     34  CA        60.5080   14.3500  111.3580 C.3    58  ASN58       0.1819
     35  C         61.0190   15.0900  110.1220 C.2    58  ASN58       0.2621
     36  O         62.2260   15.1480  109.8740 O.2    58  ASN58      -0.2715
     37  CB        61.0080   15.0560  112.6200 C.3    58  ASN58       0.1195
     38  CG        60.3940   16.4290  112.8030 C.2    58  ASN58       0.2630
     39  OD1       60.5050   17.2910  111.9350 O.2    58  ASN58      -0.2716
     40  ND2       59.7430   16.6390  113.9430 N.am   58  ASN58      -0.0877
     41  N         60.0880   15.6590  109.3590 N.am   59  VAL59      -0.1977
     42  CA        60.4220   16.3910  108.1400 C.3    59  VAL59       0.1596
     43  C         61.4230   17.5150  108.3830 C.2    59  VAL59       0.2287
     44  O         62.2420   17.8190  107.5210 O.2    59  VAL59      -0.2864
     45  CB        59.1570   16.9940  107.4840 C.3    59  VAL59       0.0276
     46  CG1       58.1110   15.9080  107.2780 C.3    59  VAL59       0.0022
     47  CG2       58.6060   18.1210  108.3380 C.3    59  VAL59       0.0022
     48  N         60.2260   22.9480  117.7710 N.3    81  ILE81      -0.1245
     49  CA        59.0250   23.1570  116.9860 C.3    81  ILE81       0.1561
     50  C         57.7120   23.2410  117.7420 C.2    81  ILE81       0.2260
     51  O         57.2710   22.2730  118.3580 O.2    81  ILE81      -0.2867
     52  CB        58.8720   22.0510  115.9220 C.3    81  ILE81       0.0252
     53  CG1       60.0830   22.0540  114.9890 C.3    81  ILE81       0.0019
     54  CG2       57.5900   22.2660  115.1270 C.3    81  ILE81       0.0019
     55  CD1       60.0800   20.9330  113.9740 C.3    81  ILE81       0.0001
     56  N         54.0370   23.3480  117.1580 N.3    83  LYS83      -0.1245
     57  CA        53.1020   23.1120  116.0740 C.3    83  LYS83       0.1561
     58  C         52.0100   24.1600  116.0540 C.2    83  LYS83       0.2260
     59  O         51.6190   24.6810  117.0940 O.2    83  LYS83      -0.2867
     60  CB        52.4850   21.7180  116.1810 C.3    83  LYS83       0.0271
     61  CG        53.4610   20.6010  115.8490 C.3    83  LYS83       0.0035
     62  CD        54.1490   20.8290  114.4990 C.3    83  LYS83       0.0206
     63  CE        53.1610   20.8650  113.3320 C.3    83  LYS83       0.1093
     64  NZ        53.8360   21.0690  112.0200 N.3    83  LYS83      -0.1314
     65  N         47.2340   20.5280  113.9030 N.3    86  LYS86      -0.1231
     66  CA        47.3140   19.0950  113.6770 C.3    86  LYS86       0.1693
     67  C         47.8240   18.7390  112.2860 C.2    86  LYS86       0.2592
     68  O         47.9280   19.5950  111.4080 O.2    86  LYS86      -0.2718
     69  CB        45.9200   18.4910  113.8890 C.3    86  LYS86       0.0285
     70  CG        44.8630   19.0860  112.9500 C.3    86  LYS86       0.0035
     71  CD        43.4200   18.7660  113.3850 C.3    86  LYS86       0.0206
     72  CE        43.0280   19.5500  114.6310 C.3    86  LYS86       0.1093
     73  NZ        41.5630   19.4990  114.9040 N.3    86  LYS86      -0.1314
     74  N         48.1580   17.4670  112.0990 N.am   87  ALA87      -0.1966
     75  CA        48.6110   16.9790  110.8040 C.3    87  ALA87       0.1728
     76  C         47.3900   16.2960  110.1980 C.2    87  ALA87       0.2617
     77  O         46.3280   16.2650  110.8240 O.2    87  ALA87      -0.2715
     78  CB        49.7440   15.9840  110.9800 C.3    87  ALA87       0.0334
     79  N         47.5360   15.7720  108.9840 N.am   88  GLY88      -0.1940
     80  CA        46.4380   15.0830  108.3170 C.3    88  GLY88       0.2014
     81  C         45.0920   15.7900  108.2950 C.2    88  GLY88       0.2640
     82  O         44.0410   15.1410  108.2470 O.2    88  GLY88      -0.2714
     83  N         45.1120   17.1180  108.3350 N.am   89  SER89      -0.1935
     84  CA        43.8720   17.8940  108.3120 C.3    89  SER89       0.2055
     85  C         43.6960   18.6260  106.9660 C.2    89  SER89       0.2644
     86  O         42.6210   19.1540  106.6610 O.2    89  SER89      -0.2714
     87  CB        43.8580   18.8960  109.4760 C.3    89  SER89       0.2130
     88  OG        45.0970   19.5800  109.5840 O.3    89  SER89      -0.2179
     89  N         44.7550   18.6280  106.1670 N.am   90  GLY90      -0.1939
     90  CA        44.7000   19.2790  104.8730 C.3    90  GLY90       0.2014
     91  C         45.1090   20.7370  104.9230 C.2    90  GLY90       0.2639
     92  O         44.6760   21.5050  104.0670 O.2    90  GLY90      -0.2714
     93  N         45.9440   21.1090  105.9050 N.am   91  LEU91      -0.1963
     94  CA        46.4130   22.4820  106.0620 C.3    91  LEU91       0.1728
     95  C         47.9110   22.6800  105.9430 C.2    91  LEU91       0.2617
     96  O         48.4550   23.6840  106.4140 O.2    91  LEU91      -0.2715
     97  CB        45.9450   23.0430  107.3880 C.3    91  LEU91       0.0311
     98  CG        44.4310   23.1440  107.5060 C.3    91  LEU91       0.0022
     99  CD1       44.0890   23.4280  108.9640 C.3    91  LEU91       0.0001
    100  CD2       43.9050   24.2790  106.5690 C.3    91  LEU91       0.0001
    101  N         48.5730   21.7210  105.3090 N.am   92  GLY92      -0.1940
    102  CA        50.0050   21.8000  105.1120 C.3    92  GLY92       0.2014
    103  C         50.8350   21.8740  106.3840 C.2    92  GLY92       0.2640
    104  O         51.8010   22.6330  106.4490 O.2    92  GLY92      -0.2714
    105  N         50.4710   21.0880  107.3960 N.am   93  SER93      -0.1935
    106  CA        51.2230   21.1040  108.6550 C.3    93  SER93       0.2055
    107  C         52.6620   20.6410  108.4290 C.2    93  SER93       0.2643
    108  O         53.6060   21.2090  108.9640 O.2    93  SER93      -0.2714
    109  CB        50.5480   20.2220  109.7060 C.3    93  SER93       0.2130
    110  OG        51.2410   20.3340  110.9450 O.3    93  SER93      -0.2179
    111  N         52.8150   19.6210  107.6070 N.am   94  SER94      -0.1949
    112  CA        54.1230   19.0930  107.2780 C.3    94  SER94       0.1924
    113  C         54.9290   20.1760  106.5750 C.2    94  SER94       0.2314
    114  O         56.0860   20.4560  106.9220 O.2    94  SER94      -0.2863
    115  CB        53.9640   17.9040  106.3450 C.3    94  SER94       0.2116
    116  OG        55.2150   17.3320  106.0520 O.3    94  SER94      -0.2180
    117  N         56.4950   22.8830  108.7440 N.3    97  SER97      -0.1217
    118  CA        57.7970   22.5520  109.3440 C.3    97  SER97       0.1889
    119  C         58.9100   22.4460  108.2890 C.2    97  SER97       0.2288
    120  O         59.9900   23.0240  108.4530 O.2    97  SER97      -0.2866
    121  CB        57.7020   21.2490  110.1540 C.3    97  SER97       0.2089
    122  OG        56.8830   21.4210  111.3070 O.3    97  SER97      -0.2183
    123  N         58.5730   16.7610  102.2730 N.3   126  GLU126     -0.1245
    124  CA        57.2550   16.2190  101.9700 C.3   126  GLU126      0.1567
    125  C         57.3850   14.8650  101.2790 C.2   126  GLU126      0.2260
    126  O         56.4560   14.0600  101.3030 O.2   126  GLU126     -0.2867
    127  CB        56.4930   17.2050  101.0810 C.3   126  GLU126      0.0388
    128  CG        56.4390   18.6150  101.6540 C.3   126  GLU126      0.1160
    129  CD        55.2050   18.8660  102.5050 C.2   126  GLU126      0.3649
    130  OE1       54.1340   19.1580  101.9290 O.co2 126  GLU126     -0.2457
    131  OE2       55.3010   18.7690  103.7470 O.co2 126  GLU126     -0.2457
    132  N         57.2020   11.4480  103.9740 N.3   129  SER129     -0.1202
    133  CA        56.1740   11.8920  104.9170 C.3   129  SER129      0.2020
    134  C         54.8180   11.7020  104.2400 C.2   129  SER129      0.2619
    135  O         53.8100   11.4170  104.8950 O.2   129  SER129     -0.2717
    136  CB        56.3680   13.3700  105.2750 C.3   129  SER129      0.2103
    137  OG        55.3320   13.8340  106.1220 O.3   129  SER129     -0.2182
    138  N         54.8100   11.8710  102.9190 N.am  130  SER130     -0.1951
    139  CA        53.6020   11.7050  102.1150 C.3   130  SER130      0.1924
    140  C         53.8950   10.7660  100.9410 C.2   130  SER130      0.2314
    141  O         53.0790    9.9030  100.6060 O.2   130  SER130     -0.2863
    142  CB        53.1070   13.0640  101.5910 C.3   130  SER130      0.2116
    143  OG        54.0370   13.6570  100.6970 O.3   130  SER130     -0.2180
    144  N         55.6930   16.7160   96.3470 N.3   134  HIS134     -0.1241
    145  CA        54.6690   17.7480   96.5670 C.3   134  HIS134      0.1621
    146  C         55.1970   19.1440   96.9020 C.2   134  HIS134      0.2264
    147  O         55.7020   19.3780   98.0000 O.2   134  HIS134     -0.2867
    148  CB        53.7120   17.3210   97.6780 C.3   134  HIS134      0.0745
    149  CG        52.7960   16.2090   97.2840 C.ar  134  HIS134      0.0817
    150  ND1       52.0780   16.2240   96.1070 N.ar  134  HIS134     -0.2268
    151  CD2       52.4790   15.0480   97.9050 C.ar  134  HIS134      0.1154
    152  CE1       51.3620   15.1180   96.0160 C.ar  134  HIS134      0.1986
    153  NE2       51.5860   14.3860   97.0940 N.ar  134  HIS134     -0.2212
    154  N         52.1830   22.9690   98.6750 N.3   137  ASN137     -0.1240
    155  CA        51.9270   23.5200  100.0190 C.3   137  ASN137      0.1653
    156  C         53.1990   24.2490  100.4570 C.2   137  ASN137      0.2266
    157  O         53.1660   25.2900  101.1100 O.2   137  ASN137     -0.2867
    158  CB        51.6100   22.4230  101.0400 C.3   137  ASN137      0.1155
    159  CG        50.1760   21.9760  100.9920 C.2   137  ASN137      0.2627
    160  OD1       49.2820   22.6040  101.5770 O.2   137  ASN137     -0.2716
    161  ND2       49.9350   20.8960  100.2790 N.am  137  ASN137     -0.0877
    162  N         44.7360   10.4450  103.6720 N.3   179  THR179     -0.1218
    163  CA        45.3270   11.1560  102.5340 C.3   179  THR179      0.1862
    164  C         45.5960   10.2700  101.3140 C.2   179  THR179      0.2287
    165  O         45.2410   10.6280  100.1840 O.2   179  THR179     -0.2866
    166  CB        46.6730   11.8300  102.9490 C.3   179  THR179      0.1770
    167  OG1       46.4040   12.9940  103.7430 O.3   179  THR179     -0.2211
    168  CG2       47.4980   12.2200  101.7220 C.3   179  THR179      0.0375
    169  N         43.2080   21.3140  100.5600 N.3   256  GLY256     -0.1210
    170  CA        44.0630   20.1730  100.3160 C.3   256  GLY256      0.1956
    171  C         43.2090   18.9420  100.1240 C.2   256  GLY256      0.2613
    172  O         42.1410   18.9970   99.5170 O.2   256  GLY256     -0.2717
    173  N         43.6560   17.8200  100.6700 N.am  257  SER257     -0.1938
    174  CA        42.8920   16.5980  100.5260 C.3   257  SER257      0.2055
    175  C         41.8450   16.4590  101.6110 C.2   257  SER257      0.2643
    176  O         41.1950   15.4260  101.7160 O.2   257  SER257     -0.2714
    177  CB        43.8260   15.3660  100.5110 C.3   257  SER257      0.2130
    178  OG        44.6840   15.3570  101.6370 O.3   257  SER257     -0.2179
    179  N         41.6670   17.4990  102.4200 N.am  258  GLY258     -0.1954
    180  CA        40.6660   17.4300  103.4700 C.3   258  GLY258      0.1869
    181  C         41.1750   16.8320  104.7910 C.2   258  GLY258      0.2309
    182  O         42.3210   16.4450  104.8870 O.2   258  GLY258     -0.2863
@<TRIPOS>BOND
     1   152   150   ar
     2   152   153   ar
     3   150   149   ar
     4   144   145    1
     5   145   146    1
     6   145   148    1
     7   146   147    2
     8   153   151   ar
     9   149   148    1
    10   149   151   ar
    11   154   155    1
    12   172   171    2
    13   155   156    1
    14   155   158    1
    15   171   170    1
    16   171   173   am
    17   165   164    2
    18   161   159   am
    19   170   169    1
    20   156   157    2
    21   177   174    1
    22   177   178    1
    23   174   173    1
    24   174   175    1
    25   141   140    2
    26   143   142    1
    27   140   139    1
    28   159   158    1
    29   159   160    2
    30   127   128    1
    31   127   124    1
    32   125   126    2
    33   125   124    1
    34   164   163    1
    35   142   139    1
    36   175   176    2
    37   175   179   am
    38   128   129    1
    39   168   166    1
    40   130   129   ar
    41   124   123    1
    42   139   138    1
    43   179   180    1
    44   129   131   ar
    45   163   166    1
    46   163   162    1
    47   138   134   am
    48   166   167    1
    49   180   181    1
    50   132   133    1
    51    92    91    2
    52   134   135    2
    53   134   133    1
    54   181   182    2
    55    90    91    1
    56    90    89    1
    57   133   136    1
    58    91    93   am
    59   102   101    1
    60   102   103    1
    61   136   137    1
    62   101    95   am
    63    93    94    1
    64    95    94    1
    65    95    96    2
    66   116   115    1
    67    94    97    1
    68    89    85   am
    69   115   112    1
    70   103   104    2
    71   103   105   am
    72   100    98    1
    73   113   114    2
    74   113   112    1
    75    86    85    2
    76    85    84    1
    77    46    45    1
    78   112   111    1
    79    97    98    1
    80   105   106    1
    81    45    42    1
    82    45    47    1
    83    98    99    1
    84    44    43    2
    85   111   107   am
    86    42    43    1
    87    42    41    1
    88    82    81    2
    89   119   120    2
    90   119   118    1
    91    81    80    1
    92    81    83   am
    93    84    83    1
    94    84    87    1
    95    80    79    1
    96   107   106    1
    97   107   108    2
    98   106   109    1
    99   117   118    1
   100    79    76   am
   101    27    26    2
   102   118   121    1
   103    41    35   am
   104    87    88    1
   105   109   110    1
   106    32    31    1
   107    36    35    2
   108    35    34    1
   109   121   122    1
   110    76    75    1
   111    76    77    2
   112    26    25    1
   113    26    33   am
   114    31    30    1
   115    25    24    1
   116    25    28    1
   117    30    29    1
   118    75    78    1
   119    75    74    1
   120    29    28    1
   121    34    33    1
   122    34    37    1
   123    68    67    2
   124    39    38    2
   125    64    63    1
   126    74    67   am
   127    67    66    1
   128    37    38    1
   129    38    40   am
   130    70    71    1
   131    70    69    1
   132    63    62    1
   133    71    72    1
   134    22    23    1
   135    22    21    1
   136    66    69    1
   137    66    65    1
   138    23    17    1
   139    55    53    1
   140    21    18    1
   141    62    61    1
   142    15    13    1
   143    72    73    1
   144    20    19    2
   145    53    52    1
   146    14    13    1
   147    14    16    1
   148    54    52    1
   149    17    18    1
   150    17    11   am
   151    18    19    1
   152    13    10    1
   153    10    11    1
   154    10     9    1
   155     4     3    2
   156    61    60    1
   157    52    49    1
   158    58    57    1
   159    58    59    2
   160    11    12    2
   161    57    60    1
   162    57    56    1
   163     3     9   am
   164     3     2    1
   165     7     6    2
   166    49    50    1
   167    49    48    1
   168     6     5    1
   169     6     8   am
   170     5     2    1
   171    50    51    2
   172     2     1    1
