@<TRIPOS>MOLECULE
tmp/1h78A00.pdb
 151 151 0 0 0
SMALL
GASTEIGER

@<TRIPOS>ATOM
      1  N         22.7890   77.0910   68.6980 N.3    18  LYS18      -0.1245
      2  CA        22.6570   78.1770   69.6750 C.3    18  LYS18       0.1561
      3  C         21.2700   78.7570   69.5510 C.2    18  LYS18       0.2260
      4  O         20.6670   79.1030   70.5540 O.2    18  LYS18      -0.2867
      5  CB        23.6630   79.2850   69.5090 C.3    18  LYS18       0.0271
      6  CG        25.0220   78.9200   69.9080 C.3    18  LYS18       0.0035
      7  CD        25.8770   80.1760   70.1830 C.3    18  LYS18       0.0206
      8  CE        27.0860   80.3390   69.2290 C.3    18  LYS18       0.1093
      9  NZ        28.0470   81.3690   69.8200 N.3    18  LYS18      -0.1314
     10  N         28.4370   80.7440   82.7330 N.3    39  HIS39      -0.1226
     11  CA        28.7390   80.3540   81.3720 C.3    39  HIS39       0.1752
     12  C         28.2660   78.9350   81.1410 C.2    39  HIS39       0.2596
     13  O         28.7760   77.9780   81.7630 O.2    39  HIS39      -0.2718
     14  CB        30.2120   80.4030   81.1230 C.3    39  HIS39       0.0759
     15  CG        30.5530   80.1850   79.6910 C.ar   39  HIS39       0.0818
     16  ND1       30.1760   81.0750   78.7110 N.ar   39  HIS39      -0.2268
     17  CD2       31.1080   79.1180   79.0480 C.ar   39  HIS39       0.1154
     18  CE1       30.4700   80.5660   77.5260 C.ar   39  HIS39       0.1986
     19  NE2       31.0370   79.3820   77.7040 N.ar   39  HIS39      -0.2212
     20  N         27.2760   78.7770   80.2910 N.am   40  VAL40      -0.1966
     21  CA        26.8120   77.4490   79.9690 C.3    40  VAL40       0.1727
     22  C         27.7470   76.9550   78.8710 C.2    40  VAL40       0.2616
     23  O         27.7310   77.4550   77.7400 O.2    40  VAL40      -0.2715
     24  CB        25.3190   77.4730   79.4810 C.3    40  VAL40       0.0290
     25  CG1       24.8490   76.0090   79.1490 C.3    40  VAL40       0.0023
     26  CG2       24.4070   78.0760   80.5950 C.3    40  VAL40       0.0023
     27  N         28.6150   75.9940   79.1820 N.am   41  HIS41      -0.1959
     28  CA        29.5270   75.5200   78.1240 C.3    41  HIS41       0.1787
     29  C         28.8530   74.7490   76.9450 C.2    41  HIS41       0.2620
     30  O         27.7010   74.2760   77.0410 O.2    41  HIS41      -0.2715
     31  CB        30.6070   74.6540   78.7600 C.3    41  HIS41       0.0785
     32  CG        31.5370   75.3970   79.7040 C.ar   41  HIS41       0.0821
     33  ND1       32.8060   75.8020   79.3380 N.ar   41  HIS41      -0.2267
     34  CD2       31.3760   75.7980   80.9980 C.ar   41  HIS41       0.1154
     35  CE1       33.3880   76.4180   80.3570 C.ar   41  HIS41       0.1986
     36  NE2       32.5430   76.4230   81.3760 N.ar   41  HIS41      -0.2212
     37  N         29.5350   74.6980   75.7900 N.am   42  ASP42      -0.1957
     38  CA        29.0490   73.9190   74.6540 C.3    42  ASP42       0.1840
     39  C         27.6170   74.1320   74.2060 C.2    42  ASP42       0.2622
     40  O         26.9400   73.2010   73.6780 O.2    42  ASP42      -0.2715
     41  CB        29.2740   72.4150   74.9860 C.3    42  ASP42       0.1450
     42  CG        30.6720   72.1710   75.6430 C.2    42  ASP42       0.3671
     43  OD1       31.6780   72.1810   74.9200 O.co2  42  ASP42      -0.2456
     44  OD2       30.8060   72.0330   76.8830 O.co2  42  ASP42      -0.2456
     45  N         27.1530   75.3540   74.3610 N.am   43  ILE43      -0.1963
     46  CA        25.7980   75.7210   73.9860 C.3    43  ILE43       0.1727
     47  C         25.6370   75.5270   72.4570 C.2    43  ILE43       0.2616
     48  O         24.5210   75.4240   71.9540 O.2    43  ILE43      -0.2715
     49  CB        25.5100   77.2030   74.4210 C.3    43  ILE43       0.0290
     50  CG1       23.9940   77.3650   74.5400 C.3    43  ILE43       0.0022
     51  CG2       26.1300   78.2700   73.3620 C.3    43  ILE43       0.0023
     52  CD1       23.4470   76.7600   75.7940 C.3    43  ILE43       0.0001
     53  N         26.7430   75.4740   71.7290 N.am   44  ASP44      -0.1957
     54  CA        26.6830   75.1980   70.3090 C.3    44  ASP44       0.1840
     55  C         26.4440   73.6910   69.9880 C.2    44  ASP44       0.2622
     56  O         26.3760   73.3240   68.7830 O.2    44  ASP44      -0.2715
     57  CB        27.9480   75.6660   69.5690 C.3    44  ASP44       0.1450
     58  CG        29.2430   75.1500   70.2160 C.2    44  ASP44       0.3671
     59  OD1       29.2480   74.8130   71.4200 O.co2  44  ASP44      -0.2456
     60  OD2       30.2780   75.0980   69.5190 O.co2  44  ASP44      -0.2456
     61  N         26.3870   72.8410   71.0250 N.am   45  TYR45      -0.1974
     62  CA        26.0680   71.4040   70.8360 C.3    45  TYR45       0.1639
     63  C         24.7910   70.9960   71.6170 C.2    45  TYR45       0.2290
     64  O         23.8730   70.3420   71.0960 O.2    45  TYR45      -0.2864
     65  CB        27.2090   70.5030   71.3370 C.3    45  TYR45       0.0560
     66  CG        28.4110   70.4910   70.4130 C.ar   45  TYR45      -0.0198
     67  CD1       29.3760   71.5170   70.4410 C.ar   45  TYR45      -0.0009
     68  CD2       28.5580   69.4730   69.4660 C.ar   45  TYR45      -0.0009
     69  CE1       30.4730   71.5170   69.5250 C.ar   45  TYR45       0.0417
     70  CE2       29.6070   69.4800   68.5620 C.ar   45  TYR45       0.0417
     71  CZ        30.5550   70.4960   68.5860 C.ar   45  TYR45       0.1957
     72  OH        31.5190   70.4980   67.5750 O.3    45  TYR45      -0.2866
     73  N         34.5470   71.7960   89.7060 N.3   414  TYR414     -0.1241
     74  CA        35.4390   71.6290   88.5820 C.3   414  TYR414      0.1605
     75  C         36.2220   72.8520   88.1990 C.2   414  TYR414      0.2264
     76  O         35.6370   73.8980   87.9420 O.2   414  TYR414     -0.2867
     77  CB        34.5500   71.1760   87.4150 C.3   414  TYR414      0.0534
     78  CG        35.2240   71.0230   86.1030 C.ar  414  TYR414     -0.0201
     79  CD1       36.2340   70.0570   85.9490 C.ar  414  TYR414     -0.0009
     80  CD2       34.8020   71.7760   84.9700 C.ar  414  TYR414     -0.0009
     81  CE1       36.8230   69.8220   84.7320 C.ar  414  TYR414      0.0417
     82  CE2       35.3870   71.5440   83.6790 C.ar  414  TYR414      0.0417
     83  CZ        36.4180   70.5550   83.5980 C.ar  414  TYR414      0.1957
     84  OH        37.1480   70.3160   82.4710 O.3   414  TYR414     -0.2866
     85  N         37.4800   74.7650   85.7040 N.3   416  THR416     -0.1204
     86  CA        37.3270   74.9790   84.2680 C.3   416  THR416      0.1979
     87  C         38.5950   75.3100   83.4990 C.2   416  THR416      0.2460
     88  O         39.3300   76.1580   83.8910 O.2   416  THR416     -0.2732
     89  CB        36.3320   76.0720   84.0140 C.3   416  THR416      0.1783
     90  OG1       35.2140   75.8890   84.8790 O.3   416  THR416     -0.2211
     91  CG2       35.8670   76.0640   82.5870 C.3   416  THR416      0.0376
     92  N         38.8880   74.5860   82.4110 N.am  417  PRO417     -0.2717
     93  CA        40.1090   74.9080   81.6390 C.3   417  PRO417      0.1535
     94  C         40.0140   76.3810   81.1560 C.2   417  PRO417      0.2598
     95  O         40.9700   77.1160   81.1950 O.2   417  PRO417     -0.2715
     96  CB        40.0540   73.9110   80.4880 C.3   417  PRO417      0.0310
     97  CG        39.4580   72.6650   81.1620 C.3   417  PRO417      0.0237
     98  CD        38.3230   73.2730   82.0120 C.3   417  PRO417      0.0939
     99  N         38.8380   76.7760   80.6880 N.am  418  ALA418     -0.1964
    100  CA        38.5860   78.1450   80.2820 C.3   418  ALA418      0.1728
    101  C         39.6570   78.7630   79.3780 C.2   418  ALA418      0.2616
    102  O         40.2020   79.8370   79.6810 O.2   418  ALA418     -0.2715
    103  CB        38.3740   79.0140   81.5610 C.3   418  ALA418      0.0334
    104  N         39.9250   78.0930   78.2560 N.am  419  GLU419     -0.1963
    105  CA        40.9230   78.5350   77.2720 C.3   419  GLU419      0.1733
    106  C         40.4230   79.8860   76.6990 C.2   419  GLU419      0.2616
    107  O         41.2040   80.7910   76.4360 O.2   419  GLU419     -0.2715
    108  CB        41.0430   77.4990   76.1390 C.3   419  GLU419      0.0429
    109  CG        42.2270   77.7320   75.1710 C.3   419  GLU419      0.1163
    110  CD        43.5450   77.0990   75.6870 C.2   419  GLU419      0.3649
    111  OE1       43.4580   76.2690   76.6460 O.co2 419  GLU419     -0.2457
    112  OE2       44.6500   77.4090   75.1480 O.co2 419  GLU419     -0.2457
    113  N         39.1140   79.9890   76.4740 N.am  420  ASN420     -0.1958
    114  CA        38.5480   81.2410   75.9790 C.3   420  ASN420      0.1819
    115  C         37.7110   81.9550   77.0360 C.2   420  ASN420      0.2621
    116  O         37.6410   83.1590   77.0360 O.2   420  ASN420     -0.2715
    117  CB        37.6380   81.0110   74.7750 C.3   420  ASN420      0.1195
    118  CG        38.2700   80.1330   73.7760 C.2   420  ASN420      0.2630
    119  OD1       39.3360   80.5100   73.1840 O.2   420  ASN420     -0.2716
    120  ND2       37.6730   78.9080   73.5830 N.am  420  ASN420     -0.0877
    121  N         37.0790   81.2010   77.9130 N.am  421  LEU421     -0.1977
    122  CA        36.2150   81.7950   78.8850 C.3   421  LEU421      0.1596
    123  C         36.9830   82.8460   79.7100 C.2   421  LEU421      0.2287
    124  O         36.4020   83.8550   80.1200 O.2   421  LEU421     -0.2864
    125  CB        35.5690   80.6890   79.7560 C.3   421  LEU421      0.0297
    126  CG        34.4510   81.1790   80.6800 C.3   421  LEU421      0.0022
    127  CD1       33.4930   82.0640   79.8880 C.3   421  LEU421      0.0001
    128  CD2       33.7450   79.9670   81.3220 C.3   421  LEU421      0.0001
    129  N         36.3570   85.9350   77.7180 N.3   424  ARG424     -0.1245
    130  CA        34.9460   86.2300   77.6410 C.3   424  ARG424      0.1563
    131  C         34.3430   86.7810   78.9500 C.2   424  ARG424      0.2260
    132  O         33.5070   87.6770   78.9010 O.2   424  ARG424     -0.2867
    133  CB        34.1840   84.9670   77.2000 C.3   424  ARG424      0.0307
    134  CG        32.6490   85.1960   77.1420 C.3   424  ARG424      0.0489
    135  CD        31.8040   83.9080   76.9440 C.3   424  ARG424      0.2205
    136  NE        30.4390   84.3000   76.5780 N.pl3 424  ARG424     -0.0865
    137  CZ        29.3550   84.3100   77.3570 C.cat 424  ARG424      0.5346
    138  NH1       29.3780   83.8990   78.6930 N.pl3 424  ARG424      0.1354
    139  NH2       28.2310   84.7970   76.7720 N.pl3 424  ARG424      0.1354
    140  N         45.8500   73.9890   76.5310 N.3   528  TYR528     -0.1241
    141  CA        46.4610   73.1330   75.5130 C.3   528  TYR528      0.1605
    142  C         47.7650   73.6890   74.9680 C.2   528  TYR528      0.2264
    143  O         48.1300   74.8220   75.2090 O.2   528  TYR528     -0.2867
    144  CB        45.5530   72.9440   74.2820 C.3   528  TYR528      0.0534
    145  CG        44.1070   72.7070   74.5510 C.ar  528  TYR528     -0.0201
    146  CD1       43.2410   73.7850   74.7280 C.ar  528  TYR528     -0.0009
    147  CD2       43.5910   71.4030   74.6570 C.ar  528  TYR528     -0.0009
    148  CE1       41.8950   73.5920   75.0060 C.ar  528  TYR528      0.0417
    149  CE2       42.2380   71.1840   74.9490 C.ar  528  TYR528      0.0417
    150  CZ        41.4010   72.2980   75.1250 C.ar  528  TYR528      0.1957
    151  OH        40.0860   72.1490   75.4840 O.3   528  TYR528     -0.2866
@<TRIPOS>BOND
     1    72    71    1
     2    70    71   ar
     3    70    68   ar
     4    71    69   ar
     5     1     2    1
     6    56    55    2
     7     8     9    1
     8     8     7    1
     9    68    66   ar
    10     5     2    1
    11     5     6    1
    12    60    58   ar
    13    69    67   ar
    14     3     2    1
    15     3     4    2
    16    57    58    1
    17    57    54    1
    18     6     7    1
    19    55    54    1
    20    55    61   am
    21    58    59   ar
    22    54    53    1
    23    66    67   ar
    24    66    65    1
    25    62    61    1
    26    62    65    1
    27    62    63    1
    28    64    63    2
    29    53    47   am
    30    48    47    2
    31    47    46    1
    32   119   118    2
    33    51    49    1
    34   120   118   am
    35    40    39    2
    36   118   117    1
    37    46    45    1
    38    46    49    1
    39    39    45   am
    40    39    38    1
    41   144   145    1
    42   144   141    1
    43    49    50    1
    44    50    52    1
    45   145   147   ar
    46   145   146   ar
    47    38    41    1
    48    38    37    1
    49   147   149   ar
    50   146   148   ar
    51   117   114    1
    52    43    42   ar
    53   149   150   ar
    54   142   143    2
    55   142   141    1
    56    41    42    1
    57   148   150   ar
    58   150   151    1
    59   112   110   ar
    60   109   110    1
    61   109   108    1
    62   141   140    1
    63    42    44   ar
    64   110   111   ar
    65    37    29   am
    66   114   113    1
    67   114   115    1
    68   108   105    1
    69   107   106    2
    70   113   106   am
    71   136   135    1
    72   136   137    2
    73   106   105    1
    74   139   137    1
    75   135   134    1
    76    29    30    2
    77    29    28    1
    78   115   116    2
    79   115   121   am
    80   134   133    1
    81   133   130    1
    82   105   104    1
    83   137   138    1
    84    18    19   ar
    85    18    16   ar
    86   130   129    1
    87   130   131    1
    88    19    17   ar
    89    23    22    2
    90   121   122    1
    91    28    31    1
    92    28    27    1
    93   104   101   am
    94    16    15   ar
    95    31    32    1
    96    22    27   am
    97    22    21    1
    98   122   123    1
    99   122   125    1
   100   132   131    2
   101    17    15   ar
   102    25    24    1
   103    33    32   ar
   104    33    35   ar
   105   101   102    2
   106   101   100    1
   107    24    21    1
   108    24    26    1
   109    15    14    1
   110    32    34   ar
   111   123   124    2
   112   125   126    1
   113   127   126    1
   114    21    20    1
   115   100    99    1
   116   100   103    1
   117    20    12   am
   118    35    36   ar
   119    96    97    1
   120    96    93    1
   121   126   128    1
   122    99    94   am
   123    34    36   ar
   124    14    11    1
   125    12    11    1
   126    12    13    2
   127    94    95    2
   128    94    93    1
   129    97    98    1
   130    11    10    1
   131    93    92    1
   132    98    92    1
   133    92    87   am
   134    84    83    1
   135    91    89    1
   136    87    88    2
   137    87    86    1
   138    83    82   ar
   139    83    81   ar
   140    82    80   ar
   141    89    86    1
   142    89    90    1
   143    86    85    1
   144    81    79   ar
   145    80    78   ar
   146    79    78   ar
   147    78    77    1
   148    77    74    1
   149    76    75    2
   150    75    74    1
   151    74    73    1
