@<TRIPOS>MOLECULE
tmp/1h78A01.pdb
 93 89 0 0 0
SMALL
GASTEIGER

@<TRIPOS>ATOM
      1  N         30.8240   43.2300   63.1490 N.3    73  GLN73      -0.1231
      2  CA        31.0280   42.6160   64.4590 C.3    73  GLN73       0.1698
      3  C         32.5310   42.4370   64.6830 C.2    73  GLN73       0.2592
      4  O         33.0870   41.4660   64.2510 O.2    73  GLN73      -0.2718
      5  CB        30.3230   41.2830   64.4360 C.3    73  GLN73       0.0381
      6  CG        29.9490   40.7210   65.7770 C.3    73  GLN73       0.0905
      7  CD        29.0570   41.6290   66.5970 C.2    73  GLN73       0.2608
      8  OE1       27.8810   41.9110   66.2360 O.2    73  GLN73      -0.2717
      9  NE2       29.6100   42.0920   67.7310 N.am   73  GLN73      -0.0878
     10  N         33.1840   43.3940   65.3280 N.am   74  ILE74      -0.1966
     11  CA        34.6190   43.3510   65.5630 C.3    74  ILE74       0.1727
     12  C         34.9820   42.3120   66.6150 C.2    74  ILE74       0.2616
     13  O         34.2350   42.0870   67.5930 O.2    74  ILE74      -0.2715
     14  CB        35.1270   44.7310   66.0120 C.3    74  ILE74       0.0290
     15  CG1       34.5430   45.7910   65.0970 C.3    74  ILE74       0.0022
     16  CG2       36.6390   44.8050   65.9450 C.3    74  ILE74       0.0023
     17  CD1       34.8360   45.5290   63.5970 C.3    74  ILE74       0.0001
     18  N         36.1180   41.6590   66.4190 N.am   75  GLU75      -0.1963
     19  CA        36.5060   40.6200   67.3640 C.3    75  GLU75       0.1733
     20  C         37.7840   41.0100   68.0640 C.2    75  GLU75       0.2617
     21  O         38.5320   41.8790   67.5680 O.2    75  GLU75      -0.2715
     22  CB        36.7320   39.3050   66.6050 C.3    75  GLU75       0.0429
     23  CG        35.4870   38.7000   65.9140 C.3    75  GLU75       0.1163
     24  CD        35.8310   37.3670   65.2380 C.2    75  GLU75       0.3649
     25  OE1       36.2020   37.4160   64.0410 O.co2  75  GLU75      -0.2457
     26  OE2       35.7710   36.2830   65.9080 O.co2  75  GLU75      -0.2457
     27  N         38.0990   40.3170   69.1600 N.am   76  THR76      -0.1937
     28  CA        39.3110   40.6250   69.9030 C.3    76  THR76       0.2013
     29  C         40.4780   40.7360   68.9580 C.2    76  THR76       0.2484
     30  O         40.7140   39.8650   68.1260 O.2    76  THR76      -0.2729
     31  CB        39.5820   39.5820   70.9640 C.3    76  THR76       0.1807
     32  OG1       38.4590   39.5410   71.8690 O.3    76  THR76      -0.2208
     33  CG2       40.8450   39.9410   71.7610 C.3    76  THR76       0.0379
     34  N         41.2050   41.8490   69.0150 N.am   77  PRO77      -0.2715
     35  CA        42.3220   41.9010   68.0710 C.3    77  PRO77       0.1536
     36  C         43.3670   40.7680   68.3250 C.2    77  PRO77       0.2598
     37  O         43.4990   40.2950   69.4470 O.2    77  PRO77      -0.2715
     38  CB        42.8710   43.2990   68.2830 C.3    77  PRO77       0.0310
     39  CG        42.5580   43.5810   69.6970 C.3    77  PRO77       0.0237
     40  CD        41.1960   43.0000   69.9240 C.3    77  PRO77       0.0939
     41  N         44.1010   40.3710   67.2820 N.am   78  LYS78      -0.1964
     42  CA        45.0850   39.2940   67.3620 C.3    78  LYS78       0.1728
     43  C         46.5110   39.8240   67.2900 C.2    78  LYS78       0.2616
     44  O         47.4330   39.0650   67.0400 O.2    78  LYS78      -0.2715
     45  CB        44.9250   38.2800   66.1990 C.3    78  LYS78       0.0311
     46  CG        43.4990   37.8020   65.8410 C.3    78  LYS78       0.0038
     47  CD        42.7950   36.8760   66.8640 C.3    78  LYS78       0.0206
     48  CE        41.3620   36.4630   66.3380 C.3    78  LYS78       0.1093
     49  NZ        40.1470   37.0390   67.0870 N.3    78  LYS78      -0.1314
     50  N         46.7010   41.1110   67.4970 N.am   79  SER79      -0.1950
     51  CA        48.0370   41.7190   67.3900 C.3    79  SER79       0.1924
     52  C         47.9520   43.1220   67.9590 C.2    79  SER79       0.2314
     53  O         46.9090   43.7330   67.9810 O.2    79  SER79      -0.2863
     54  CB        48.5080   41.8110   65.8970 C.3    79  SER79       0.2116
     55  OG        47.4170   41.9490   64.9440 O.3    79  SER79      -0.2180
     56  N         46.8270   45.8780   65.3540 N.3    82  VAL82      -0.1245
     57  CA        45.4080   45.8520   65.0650 C.3    82  VAL82       0.1561
     58  C         44.5960   46.3320   66.2630 C.2    82  VAL82       0.2260
     59  O         43.4410   46.7250   66.1500 O.2    82  VAL82      -0.2867
     60  CB        44.9690   44.4210   64.7100 C.3    82  VAL82       0.0252
     61  CG1       43.4160   44.2830   64.7880 C.3    82  VAL82       0.0019
     62  CG2       45.5130   44.0790   63.2920 C.3    82  VAL82       0.0019
     63  N         44.8780   50.0690   66.0670 N.3    85  ALA85      -0.1231
     64  CA        44.1990   50.5700   64.8800 C.3    85  ALA85       0.1694
     65  C         42.7200   50.6490   65.2440 C.2    85  ALA85       0.2591
     66  O         42.0800   51.6160   64.9430 O.2    85  ALA85      -0.2718
     67  CB        44.4370   49.6790   63.6980 C.3    85  ALA85       0.0304
     68  N         42.2140   49.6300   65.9200 N.am   86  ILE86      -0.1980
     69  CA        40.8410   49.5910   66.3980 C.3    86  ILE86       0.1595
     70  C         40.6200   50.7380   67.4500 C.2    86  ILE86       0.2287
     71  O         39.5720   51.3870   67.4780 O.2    86  ILE86      -0.2864
     72  CB        40.5630   48.2400   67.0880 C.3    86  ILE86       0.0276
     73  CG1       40.4910   47.1180   66.0340 C.3    86  ILE86       0.0022
     74  CG2       39.2870   48.2790   67.8730 C.3    86  ILE86       0.0022
     75  CD1       40.3180   45.7590   66.6760 C.3    86  ILE86       0.0001
     76  N         39.9990   53.7190   65.5590 N.3    89  GLN89      -0.1245
     77  CA        38.6860   53.6970   64.9690 C.3    89  GLN89       0.1566
     78  C         37.5700   54.0180   65.9880 C.2    89  GLN89       0.2260
     79  O         36.5270   54.5360   65.6270 O.2    89  GLN89      -0.2867
     80  CB        38.4750   52.3290   64.2980 C.3    89  GLN89       0.0367
     81  CG        39.5040   52.2060   63.1700 C.3    89  GLN89       0.0905
     82  CD        39.7170   50.7960   62.6090 C.2    89  GLN89       0.2608
     83  OE1       40.5190   50.6430   61.6830 O.2    89  GLN89      -0.2717
     84  NE2       39.0070   49.7790   63.1360 N.am   89  GLN89      -0.0878
     85  N         53.1550   35.1250   68.2090 N.3   121  LYS121     -0.1245
     86  CA        53.2250   34.9160   66.7680 C.3   121  LYS121      0.1561
     87  C         54.6420   34.9710   66.2410 C.2   121  LYS121      0.2260
     88  O         54.9650   34.2850   65.2880 O.2   121  LYS121     -0.2867
     89  CB        52.3730   35.9400   66.0160 C.3   121  LYS121      0.0271
     90  CG        50.8600   35.7720   66.1600 C.3   121  LYS121      0.0035
     91  CD        50.1540   36.8690   65.3280 C.3   121  LYS121      0.0206
     92  CE        48.6390   36.6790   65.2240 C.3   121  LYS121      0.1093
     93  NZ        48.0080   37.6720   64.3000 N.3   121  LYS121     -0.1314
@<TRIPOS>BOND
     1    83    82    2
     2    82    84   am
     3    82    81    1
     4     1     2    1
     5    81    80    1
     6    62    60    1
     7    17    15    1
     8    67    64    1
     9    25    24   ar
    10     4     3    2
    11    80    77    1
    12    93    92    1
    13     5     2    1
    14     5     6    1
    15     2     3    1
    16     3    10   am
    17    60    61    1
    18    60    57    1
    19    64    65    1
    20    64    63    1
    21    66    65    2
    22    55    54    1
    23    77    76    1
    24    77    78    1
    25    57    56    1
    26    57    58    1
    27    15    14    1
    28    92    91    1
    29    24    26   ar
    30    24    23    1
    31    65    68   am
    32    88    87    2
    33    10    11    1
    34    91    90    1
    35    11    14    1
    36    11    12    1
    37    79    78    2
    38     6     7    1
    39    46    45    1
    40    46    47    1
    41    54    51    1
    42    23    22    1
    43    68    69    1
    44    16    14    1
    45    89    90    1
    46    89    86    1
    47    73    75    1
    48    73    72    1
    49    59    58    2
    50    45    42    1
    51     8     7    2
    52    87    86    1
    53    48    47    1
    54    48    49    1
    55    69    72    1
    56    69    70    1
    57    18    12   am
    58    18    19    1
    59     7     9   am
    60    22    19    1
    61    12    13    2
    62    86    85    1
    63    44    43    2
    64    72    74    1
    65    41    42    1
    66    41    36   am
    67    43    42    1
    68    43    50   am
    69    19    20    1
    70    51    50    1
    71    51    52    1
    72    70    71    2
    73    21    20    2
    74    52    53    2
    75    20    27   am
    76    35    38    1
    77    35    36    1
    78    35    34    1
    79    30    29    2
    80    38    39    1
    81    36    37    2
    82    29    34   am
    83    29    28    1
    84    34    40    1
    85    27    28    1
    86    39    40    1
    87    28    31    1
    88    31    33    1
    89    31    32    1
