@<TRIPOS>MOLECULE
tmp/1h7aA00.pdb
 93 89 0 0 0
SMALL
GASTEIGER

@<TRIPOS>ATOM
      1  N         30.6160   46.4840   63.3950 N.3    72  GLN72      -0.1231
      2  CA        30.4370   45.8700   64.7100 C.3    72  GLN72       0.1698
      3  C         31.8230   45.3790   65.0290 C.2    72  GLN72       0.2592
      4  O         32.1550   44.2600   64.7110 O.2    72  GLN72      -0.2718
      5  CB        29.4830   44.6900   64.6240 C.3    72  GLN72       0.0381
      6  CG        29.2220   43.9830   65.9380 C.3    72  GLN72       0.0905
      7  CD        28.4770   44.8400   66.9720 C.2    72  GLN72       0.2608
      8  OE1       27.3280   45.2610   66.7600 O.2    72  GLN72      -0.2717
      9  NE2       29.1320   45.0890   68.1050 N.am   72  GLN72      -0.0878
     10  N         32.6400   46.2370   65.6240 N.am   73  ILE73      -0.1966
     11  CA        34.0190   45.8980   65.9490 C.3    73  ILE73       0.1727
     12  C         34.1880   44.7880   66.9690 C.2    73  ILE73       0.2616
     13  O         33.3850   44.6190   67.9130 O.2    73  ILE73      -0.2715
     14  CB        34.8000   47.1180   66.4830 C.3    73  ILE73       0.0290
     15  CG1       34.6090   48.3090   65.5570 C.3    73  ILE73       0.0022
     16  CG2       36.2760   46.8020   66.5290 C.3    73  ILE73       0.0023
     17  CD1       35.0570   48.0490   64.1470 C.3    73  ILE73       0.0001
     18  N         35.2560   44.0300   66.7640 N.am   74  GLU74      -0.1963
     19  CA        35.6000   42.9360   67.6480 C.3    74  GLU74       0.1733
     20  C         36.8710   43.3220   68.3670 C.2    74  GLU74       0.2617
     21  O         37.5790   44.2310   67.9400 O.2    74  GLU74      -0.2715
     22  CB        35.8360   41.6630   66.8580 C.3    74  GLU74       0.0429
     23  CG        34.6420   41.1990   66.1240 C.3    74  GLU74       0.1163
     24  CD        34.8150   39.7870   65.6510 C.2    74  GLU74       0.3649
     25  OE1       35.8260   39.5050   64.9560 O.co2  74  GLU74      -0.2457
     26  OE2       33.9340   38.9640   65.9830 O.co2  74  GLU74      -0.2457
     27  N         37.1750   42.6100   69.4390 N.am   75  THR75      -0.1937
     28  CA        38.3530   42.9150   70.2150 C.3    75  THR75       0.2013
     29  C         39.6070   42.9100   69.3940 C.2    75  THR75       0.2484
     30  O         39.8660   41.9680   68.6860 O.2    75  THR75      -0.2729
     31  CB        38.5450   41.9050   71.3530 C.3    75  THR75       0.1807
     32  OG1       37.3630   41.8580   72.1730 O.3    75  THR75      -0.2208
     33  CG2       39.7480   42.3100   72.1970 C.3    75  THR75       0.0379
     34  N         40.4070   43.9730   69.4750 N.am   76  PRO76      -0.2715
     35  CA        41.6580   44.0280   68.7040 C.3    76  PRO76       0.1536
     36  C         42.5430   42.7960   68.9450 C.2    76  PRO76       0.2598
     37  O         42.6440   42.3150   70.0740 O.2    76  PRO76      -0.2715
     38  CB        42.3340   45.3100   69.2170 C.3    76  PRO76       0.0310
     39  CG        41.1890   46.1890   69.5050 C.3    76  PRO76       0.0237
     40  CD        40.1340   45.2590   70.1380 C.3    76  PRO76       0.0939
     41  N         43.1650   42.2880   67.8810 N.am   77  LYS77      -0.1964
     42  CA        44.0710   41.1450   67.9650 C.3    77  LYS77       0.1728
     43  C         45.4740   41.6960   67.7240 C.2    77  LYS77       0.2616
     44  O         46.4210   40.9430   67.4790 O.2    77  LYS77      -0.2715
     45  CB        43.7790   40.0990   66.8780 C.3    77  LYS77       0.0311
     46  CG        42.7740   39.0380   67.2240 C.3    77  LYS77       0.0038
     47  CD        41.3920   39.5990   67.2590 C.3    77  LYS77       0.0206
     48  CE        40.3880   38.5990   67.8350 C.3    77  LYS77       0.1093
     49  NZ        39.0230   39.2090   68.0250 N.3    77  LYS77      -0.1314
     50  N         45.6190   43.0080   67.7980 N.am   78  SER78      -0.1950
     51  CA        46.9150   43.5890   67.5360 C.3    78  SER78       0.1924
     52  C         46.9600   44.9900   68.1340 C.2    78  SER78       0.2314
     53  O         45.9330   45.6380   68.2560 O.2    78  SER78      -0.2863
     54  CB        47.1240   43.5930   66.0190 C.3    78  SER78       0.2116
     55  OG        47.2080   44.8940   65.4900 O.3    78  SER78      -0.2180
     56  N         45.8490   48.0770   65.6880 N.3    81  VAL81      -0.1245
     57  CA        44.4320   48.1600   65.4500 C.3    81  VAL81       0.1561
     58  C         43.7110   48.7850   66.6240 C.2    81  VAL81       0.2260
     59  O         42.7160   49.4690   66.4580 O.2    81  VAL81      -0.2867
     60  CB        43.8640   46.7580   65.1390 C.3    81  VAL81       0.0252
     61  CG1       42.3350   46.7610   65.1060 C.3    81  VAL81       0.0019
     62  CG2       44.3880   46.3280   63.8090 C.3    81  VAL81       0.0019
     63  N         43.8220   52.4000   66.6290 N.3    84  ALA84      -0.1231
     64  CA        43.1800   52.9210   65.4430 C.3    84  ALA84       0.1694
     65  C         41.7690   53.1330   65.9230 C.2    84  ALA84       0.2591
     66  O         41.2490   54.2490   65.8980 O.2    84  ALA84      -0.2718
     67  CB        43.2180   51.9080   64.3170 C.3    84  ALA84       0.0304
     68  N         41.1660   52.0430   66.3780 N.am   85  ILE85      -0.1980
     69  CA        39.8260   52.0840   66.8930 C.3    85  ILE85       0.1595
     70  C         39.7730   53.2180   67.9140 C.2    85  ILE85       0.2287
     71  O         38.7640   53.9170   68.0110 O.2    85  ILE85      -0.2864
     72  CB        39.4820   50.7370   67.5170 C.3    85  ILE85       0.0276
     73  CG1       39.4860   49.6790   66.4190 C.3    85  ILE85       0.0022
     74  CG2       38.1330   50.7720   68.1720 C.3    85  ILE85       0.0022
     75  CD1       39.3240   48.2580   66.9420 C.3    85  ILE85       0.0001
     76  N         39.5510   56.4590   66.1200 N.3    88  GLN88      -0.1245
     77  CA        38.2230   56.5290   65.5350 C.3    88  GLN88       0.1566
     78  C         37.1750   56.8810   66.5670 C.2    88  GLN88       0.2260
     79  O         36.2170   57.6150   66.2770 O.2    88  GLN88      -0.2867
     80  CB        37.8720   55.1960   64.9130 C.3    88  GLN88       0.0367
     81  CG        38.4910   55.0070   63.5570 C.3    88  GLN88       0.0905
     82  CD        38.7490   53.5660   63.2670 C.2    88  GLN88       0.2608
     83  OE1       37.8390   52.7400   63.3210 O.2    88  GLN88      -0.2717
     84  NE2       40.0050   53.2410   62.9660 N.am   88  GLN88      -0.0878
     85  N         51.8970   37.0600   68.7810 N.3   120  LYS120     -0.1245
     86  CA        51.9380   36.9160   67.3370 C.3   120  LYS120      0.1561
     87  C         53.3560   36.8480   66.8050 C.2   120  LYS120      0.2260
     88  O         53.6350   36.0830   65.8840 O.2   120  LYS120     -0.2867
     89  CB        51.2090   38.0810   66.6590 C.3   120  LYS120      0.0271
     90  CG        49.7120   37.8830   66.3880 C.3   120  LYS120      0.0035
     91  CD        49.1480   39.1300   65.7100 C.3   120  LYS120      0.0206
     92  CE        47.6560   39.0840   65.4420 C.3   120  LYS120      0.1093
     93  NZ        47.2710   40.4090   64.8580 N.3   120  LYS120     -0.1314
@<TRIPOS>BOND
     1    84    82   am
     2    82    83    2
     3    82    81    1
     4     1     2    1
     5    81    80    1
     6    62    60    1
     7    17    15    1
     8    67    64    1
     9     5     2    1
    10     5     6    1
    11     2     3    1
    12     4     3    2
    13    93    92    1
    14    80    77    1
    15    25    24   ar
    16     3    10   am
    17    61    60    1
    18    60    57    1
    19    92    91    1
    20    64    65    1
    21    64    63    1
    22    57    56    1
    23    57    58    1
    24    55    54    1
    25    77    76    1
    26    77    78    1
    27    15    14    1
    28    10    11    1
    29    24    26   ar
    30    24    23    1
    31    91    90    1
    32    88    87    2
    33    66    65    2
    34    65    68   am
    35     6     7    1
    36    11    14    1
    37    11    12    1
    38    54    51    1
    39    23    22    1
    40    79    78    2
    41    68    69    1
    42    90    89    1
    43    73    75    1
    44    73    72    1
    45    59    58    2
    46    14    16    1
    47    89    86    1
    48     8     7    2
    49    18    12   am
    50    18    19    1
    51    87    86    1
    52    22    19    1
    53    45    46    1
    54    45    42    1
    55    69    72    1
    56    69    70    1
    57    12    13    2
    58     7     9   am
    59    46    47    1
    60    47    48    1
    61    86    85    1
    62    44    43    2
    63    72    74    1
    64    51    50    1
    65    51    52    1
    66    19    20    1
    67    43    50   am
    68    43    42    1
    69    48    49    1
    70    41    42    1
    71    41    36   am
    72    70    71    2
    73    21    20    2
    74    52    53    2
    75    20    27   am
    76    30    29    2
    77    35    36    1
    78    35    38    1
    79    35    34    1
    80    36    37    2
    81    38    39    1
    82    29    34   am
    83    29    28    1
    84    27    28    1
    85    34    40    1
    86    39    40    1
    87    28    31    1
    88    31    32    1
    89    31    33    1
