@<TRIPOS>MOLECULE
tmp/1h7hA00.pdb
 119 113 0 0 0
SMALL
GASTEIGER

@<TRIPOS>ATOM
      1  N         19.4620   94.3170   71.5100 N.3     8  PRO8       -0.2102
      2  CA        18.1860   94.2470   70.7870 C.3     8  PRO8        0.1504
      3  C         17.0980   93.8370   71.7820 C.2     8  PRO8        0.2576
      4  O         17.2480   92.8370   72.4910 O.2     8  PRO8       -0.2718
      5  CB        18.4230   93.1380   69.7530 C.3     8  PRO8        0.0282
      6  CG        19.9120   93.1020   69.5820 C.3     8  PRO8        0.0208
      7  CD        20.4270   93.3330   70.9790 C.3     8  PRO8        0.0893
      8  N         16.0310   94.6220   71.8620 N.am    9  ALA9       -0.1966
      9  CA        14.9560   94.3250   72.8000 C.3     9  ALA9        0.1728
     10  C         13.5730   94.4950   72.1960 C.2     9  ALA9        0.2616
     11  O         12.9590   95.5650   72.2730 O.2     9  ALA9       -0.2715
     12  CB        15.1040   95.1690   74.0630 C.3     9  ALA9        0.0334
     13  N         13.0960   93.4020   71.6140 N.am   10  ARG10      -0.1977
     14  CA        11.7930   93.3290   70.9820 C.3    10  ARG10       0.1597
     15  C         10.7660   93.0450   72.0820 C.2    10  ARG10       0.2287
     16  O         10.9970   92.2020   72.9580 O.2    10  ARG10      -0.2864
     17  CB        11.8100   92.1820   69.9740 C.3    10  ARG10       0.0334
     18  CG        10.7770   92.2670   68.8760 C.3    10  ARG10       0.0492
     19  CD        10.7990   91.0150   68.0250 C.3    10  ARG10       0.2205
     20  NE        10.0400   91.1710   66.7860 N.pl3  10  ARG10      -0.0865
     21  CZ         9.6330   90.1640   66.0220 C.cat  10  ARG10       0.5346
     22  NH1        9.9050   88.9150   66.3670 N.pl3  10  ARG10       0.1354
     23  NH2        8.9770   90.4110   64.8960 N.pl3  10  ARG10       0.1354
     24  N          7.2620   92.2270   71.5630 N.3    12  GLY12      -0.1210
     25  CA         6.4750   91.0800   71.1440 C.3    12  GLY12       0.1956
     26  C          7.1170   89.7230   71.3560 C.2    12  GLY12       0.2612
     27  O          8.1320   89.3920   70.7350 O.2    12  GLY12      -0.2717
     28  N          6.5060   88.9360   72.2330 N.am   13  SER13      -0.1952
     29  CA         6.9790   87.5930   72.5510 C.3    13  SER13       0.1924
     30  C          5.7580   86.7250   72.8660 C.2    13  SER13       0.2314
     31  O          4.8530   87.1440   73.5940 O.2    13  SER13      -0.2863
     32  CB         7.9500   87.6360   73.7370 C.3    13  SER13       0.2116
     33  OG         8.5440   86.3710   73.9760 O.3    13  SER13      -0.2180
     34  N          8.5550   90.8290   77.3210 N.3    19  LYS19      -0.1245
     35  CA         9.5980   90.1380   78.0620 C.3    19  LYS19       0.1561
     36  C         10.6460   91.0570   78.7000 C.2    19  LYS19       0.2260
     37  O         10.9800   90.8860   79.8700 O.2    19  LYS19      -0.2867
     38  CB        10.2550   89.0810   77.1650 C.3    19  LYS19       0.0271
     39  CG        11.1750   88.1140   77.8890 C.3    19  LYS19       0.0035
     40  CD        11.5320   86.9120   77.0210 C.3    19  LYS19       0.0206
     41  CE        12.2300   87.3150   75.7310 C.3    19  LYS19       0.1093
     42  NZ        12.6050   86.1240   74.9160 N.3    19  LYS19      -0.1314
     43  N         12.0480   93.6230   60.8070 N.3    73  HIS73      -0.1226
     44  CA        13.3190   92.9110   60.9620 C.3    73  HIS73       0.1752
     45  C         13.0440   91.4630   61.3410 C.2    73  HIS73       0.2596
     46  O         12.3070   91.1880   62.2960 O.2    73  HIS73      -0.2718
     47  CB        14.1860   93.5560   62.0490 C.3    73  HIS73       0.0759
     48  CG        15.0000   94.7150   61.5710 C.ar   73  HIS73       0.0818
     49  ND1       15.5940   94.7490   60.3270 N.ar   73  HIS73      -0.2268
     50  CD2       15.3380   95.8760   62.1820 C.ar   73  HIS73       0.1154
     51  CE1       16.2630   95.8820   60.1950 C.ar   73  HIS73       0.1986
     52  NE2       16.1230   96.5790   61.3060 N.ar   73  HIS73      -0.2212
     53  N         13.6510   90.5390   60.6040 N.am   74  GLU74      -0.1965
     54  CA        13.4570   89.1170   60.8650 C.3    74  GLU74       0.1733
     55  C         14.3330   88.5570   61.9920 C.2    74  GLU74       0.2617
     56  O         14.0080   87.5210   62.5760 O.2    74  GLU74      -0.2715
     57  CB        13.6150   88.3000   59.5700 C.3    74  GLU74       0.0429
     58  CG        14.7930   88.7050   58.6960 C.3    74  GLU74       0.1163
     59  CD        14.7900   88.0150   57.3320 C.2    74  GLU74       0.3649
     60  OE1       14.7020   86.7650   57.2800 O.co2  74  GLU74      -0.2457
     61  OE2       14.8910   88.7270   56.3070 O.co2  74  GLU74      -0.2457
     62  N         15.3910   89.2810   62.3550 N.am   75  SER75      -0.1936
     63  CA        16.2960   88.8230   63.4110 C.3    75  SER75       0.2055
     64  C         17.0480   89.9320   64.1310 C.2    75  SER75       0.2643
     65  O         17.0250   91.0900   63.7200 O.2    75  SER75      -0.2714
     66  CB        17.3110   87.8390   62.8370 C.3    75  SER75       0.2130
     67  OG        18.1230   88.4910   61.8820 O.3    75  SER75      -0.2179
     68  N         17.7490   89.5480   65.1910 N.am   76  GLY76      -0.1954
     69  CA        18.5160   90.5090   65.9580 C.3    76  GLY76       0.1869
     70  C         19.7490   91.0120   65.2300 C.2    76  GLY76       0.2309
     71  O         20.3210   92.0240   65.6300 O.2    76  GLY76      -0.2863
     72  N         18.6150   93.8490   62.7420 N.3    79  ARG79      -0.1245
     73  CA        18.3540   95.0290   63.5570 C.3    79  ARG79       0.1563
     74  C         19.6560   95.7460   63.9000 C.2    79  ARG79       0.2260
     75  O         19.7030   96.9700   63.9380 O.2    79  ARG79      -0.2867
     76  CB        17.5900   94.6240   64.8240 C.3    79  ARG79       0.0307
     77  CG        17.3970   95.7190   65.8610 C.3    79  ARG79       0.0489
     78  CD        16.3670   95.3180   66.9270 C.3    79  ARG79       0.2205
     79  NE        14.9970   95.6300   66.5150 N.pl3  79  ARG79      -0.0865
     80  CZ        14.1710   94.7820   65.9080 C.cat  79  ARG79       0.5346
     81  NH1       14.5590   93.5450   65.6380 N.pl3  79  ARG79       0.1354
     82  NH2       12.9690   95.1860   65.5230 N.pl3  79  ARG79       0.1354
     83  N         26.7720   92.3040   70.3000 N.3    94  ASN94      -0.1240
     84  CA        25.3470   92.0320   70.3710 C.3    94  ASN94       0.1653
     85  C         25.0140   91.2470   71.6330 C.2    94  ASN94       0.2266
     86  O         25.4430   90.1060   71.7910 O.2    94  ASN94      -0.2867
     87  CB        24.9110   91.2400   69.1430 C.3    94  ASN94       0.1155
     88  CG        23.4450   91.4140   68.8360 C.2    94  ASN94       0.2627
     89  OD1       22.9260   92.5290   68.8590 O.2    94  ASN94      -0.2716
     90  ND2       22.7660   90.3170   68.5370 N.am   94  ASN94      -0.0877
     91  N         21.9940   89.8230   74.3300 N.3    96  GLN96      -0.1231
     92  CA        20.5920   89.4330   74.3840 C.3    96  GLN96       0.1698
     93  C         19.8500   90.2360   75.4410 C.2    96  GLN96       0.2593
     94  O         20.3250   90.3840   76.5680 O.2    96  GLN96      -0.2718
     95  CB        20.4850   87.9420   74.6920 C.3    96  GLN96       0.0381
     96  CG        21.2480   87.0660   73.7120 C.3    96  GLN96       0.0905
     97  CD        20.6750   87.1390   72.3090 C.2    96  GLN96       0.2608
     98  OE1       19.8720   86.2930   71.9230 O.2    96  GLN96      -0.2717
     99  NE2       21.0680   88.1620   71.5450 N.am   96  GLN96      -0.0878
    100  N         18.6820   90.7480   75.0780 N.am   97  GLY97      -0.1942
    101  CA        17.9090   91.5300   76.0210 C.3    97  GLY97       0.2014
    102  C         17.2230   90.7070   77.0940 C.2    97  GLY97       0.2638
    103  O         16.7250   91.2580   78.0830 O.2    97  GLY97      -0.2714
    104  N         17.1990   89.3880   76.9080 N.am   98  ASP98      -0.1971
    105  CA        16.5440   88.4800   77.8540 C.3    98  ASP98       0.1709
    106  C         17.4610   87.6350   78.7450 C.2    98  ASP98       0.2293
    107  O         17.0120   86.6700   79.3690 O.2    98  ASP98      -0.2864
    108  CB        15.5390   87.5760   77.1240 C.3    98  ASP98       0.1436
    109  CG        16.1990   86.6620   76.0810 C.2    98  ASP98       0.3671
    110  OD1       17.4450   86.6880   75.9160 O.co2  98  ASP98      -0.2456
    111  OD2       15.4490   85.9010   75.4280 O.co2  98  ASP98      -0.2456
    112  N         12.8800   82.3650   79.2840 N.3   225  ASP225     -0.1239
    113  CA        11.9560   81.9940   78.2150 C.3   225  ASP225      0.1674
    114  C         10.7360   81.3260   78.8330 C.2   225  ASP225      0.2266
    115  O          9.6160   81.4820   78.3480 O.2   225  ASP225     -0.2867
    116  CB        12.6250   81.0390   77.2230 C.3   225  ASP225      0.1410
    117  CG        13.6210   81.7430   76.3140 C.2   225  ASP225      0.3668
    118  OD1       13.1900   82.5820   75.4920 O.co2 225  ASP225     -0.2456
    119  OD2       14.8330   81.4560   76.4230 O.co2 225  ASP225     -0.2456
@<TRIPOS>BOND
     1    61    59   ar
     2    60    59   ar
     3    59    58    1
     4    58    57    1
     5    57    54    1
     6    51    49   ar
     7    51    52   ar
     8    49    48   ar
     9    53    54    1
    10    53    45   am
    11    43    44    1
    12    54    55    1
    13    44    45    1
    14    44    47    1
    15    52    50   ar
    16    45    46    2
    17    48    47    1
    18    48    50   ar
    19    67    66    1
    20    55    62   am
    21    55    56    2
    22    62    63    1
    23    72    73    1
    24    66    63    1
    25    63    64    1
    26    73    74    1
    27    73    76    1
    28    65    64    2
    29    74    75    2
    30    64    68   am
    31    76    77    1
    32    23    21    1
    33    68    69    1
    34    70    71    2
    35    70    69    1
    36    82    80    1
    37    81    80    1
    38    77    78    1
    39    80    79    2
    40    21    22    1
    41    21    20    2
    42    79    78    1
    43    20    19    1
    44    19    18    1
    45    90    88   am
    46    88    89    2
    47    88    87    1
    48    18    17    1
    49    87    84    1
    50     6     5    1
    51     6     7    1
    52     5     2    1
    53    17    14    1
    54    83    84    1
    55    84    85    1
    56    27    26    2
    57     2     1    1
    58     2     3    1
    59     7     1    1
    60    14    13    1
    61    14    15    1
    62    25    26    1
    63    25    24    1
    64    26    28   am
    65    99    97   am
    66    13    10   am
    67    85    86    2
    68     3     8   am
    69     3     4    2
    70     8     9    1
    71    98    97    2
    72    15    16    2
    73    10    11    2
    74    10     9    1
    75    28    29    1
    76    97    96    1
    77    29    30    1
    78    29    32    1
    79     9    12    1
    80    30    31    2
    81    96    95    1
    82    32    33    1
    83    91    92    1
    84    92    95    1
    85    92    93    1
    86    42    41    1
    87   100    93   am
    88   100   101    1
    89   111   109   ar
    90    93    94    2
    91   118   117   ar
    92    41    40    1
    93   110   109   ar
    94   101   102    1
    95   109   108    1
    96   117   119   ar
    97   117   116    1
    98   104   102   am
    99   104   105    1
   100    40    39    1
   101   102   103    2
   102   108   105    1
   103    38    39    1
   104    38    35    1
   105   116   113    1
   106    34    35    1
   107   105   106    1
   108    35    36    1
   109   113   114    1
   110   113   112    1
   111   115   114    2
   112    36    37    2
   113   106   107    2
