@<TRIPOS>MOLECULE
tmp/1h7nA00.pdb
 115 110 0 0 0
SMALL
GASTEIGER

@<TRIPOS>ATOM
      1  N         16.0790   32.0920   21.7210 N.3    89  PHE89      -0.1241
      2  CA        17.2580   31.4640   22.2450 C.3    89  PHE89       0.1605
      3  C         17.8880   32.4270   23.2830 C.2    89  PHE89       0.2264
      4  O         18.1700   33.5700   22.9290 O.2    89  PHE89      -0.2867
      5  CB        18.2750   31.1620   21.1610 C.3    89  PHE89       0.0534
      6  CG        17.8150   30.1660   20.1000 C.ar   89  PHE89      -0.0203
      7  CD1       17.1330   30.6170   18.9790 C.ar   89  PHE89      -0.0042
      8  CD2       18.1110   28.8220   20.2800 C.ar   89  PHE89      -0.0042
      9  CE1       16.7330   29.6880   18.0170 C.ar   89  PHE89      -0.0003
     10  CE2       17.6920   27.9030   19.3230 C.ar   89  PHE89      -0.0003
     11  CZ        17.0200   28.3530   18.2070 C.ar   89  PHE89      -0.0000
     12  N         12.9730   27.7840   22.1170 N.3   131  ASP131     -0.1239
     13  CA        13.8620   26.6250   22.0640 C.3   131  ASP131      0.1674
     14  C         13.9260   26.0230   23.4720 C.2   131  ASP131      0.2266
     15  O         13.9720   26.7940   24.4460 O.2   131  ASP131     -0.2867
     16  CB        15.2530   27.0180   21.5860 C.3   131  ASP131      0.1410
     17  CG        16.1700   25.8200   21.4210 C.2   131  ASP131      0.3668
     18  OD1       15.9510   25.0630   20.4490 O.co2 131  ASP131     -0.2456
     19  OD2       17.0890   25.6400   22.2460 O.co2 131  ASP131     -0.2456
     20  N         15.1870   20.9250   21.4410 N.3   179  SER179     -0.1217
     21  CA        16.2120   20.7330   20.4220 C.3   179  SER179      0.1889
     22  C         17.3640   19.8530   20.8830 C.2   179  SER179      0.2288
     23  O         18.4450   19.8300   20.2990 O.2   179  SER179     -0.2866
     24  CB        16.7580   22.0910   19.9290 C.3   179  SER179      0.2089
     25  OG        17.4250   22.7170   21.0200 O.3   179  SER179     -0.2183
     26  N         12.1250   19.1010   17.6920 N.3   207  TYR207     -0.1241
     27  CA        13.1990   18.9020   16.7160 C.3   207  TYR207      0.1605
     28  C         13.4070   17.3830   16.6740 C.2   207  TYR207      0.2264
     29  O         14.2110   16.7970   17.3910 O.2   207  TYR207     -0.2867
     30  CB        14.4790   19.6030   17.0310 C.3   207  TYR207      0.0534
     31  CG        14.6290   21.0780   17.2190 C.ar  207  TYR207     -0.0201
     32  CD1       13.9470   21.8240   18.1660 C.ar  207  TYR207     -0.0009
     33  CD2       15.5530   21.7440   16.4080 C.ar  207  TYR207     -0.0009
     34  CE1       14.1220   23.1980   18.3070 C.ar  207  TYR207      0.0417
     35  CE2       15.7520   23.1010   16.5480 C.ar  207  TYR207      0.0417
     36  CZ        15.0490   23.8090   17.4900 C.ar  207  TYR207      0.1957
     37  OH        15.2640   25.1600   17.6220 O.3   207  TYR207     -0.2866
     38  N         16.9940   15.8160   13.9830 N.3   210  LYS210     -0.1245
     39  CA        18.0600   16.8120   14.0570 C.3   210  LYS210      0.1561
     40  C         19.4000   16.0820   14.0070 C.2   210  LYS210      0.2260
     41  O         19.6210   15.1990   14.8350 O.2   210  LYS210     -0.2867
     42  CB        17.9440   17.6690   15.3130 C.3   210  LYS210      0.0271
     43  CG        19.2220   18.4640   15.5910 C.3   210  LYS210      0.0035
     44  CD        18.9620   19.3610   16.8010 C.3   210  LYS210      0.0206
     45  CE        20.1480   20.2840   17.0780 C.3   210  LYS210      0.1093
     46  NZ        19.7080   21.3580   18.0270 N.3   210  LYS210     -0.1314
     47  N         26.5470   23.9720   11.9940 N.3   216  TYR216     -0.1241
     48  CA        26.0810   24.7350   13.1460 C.3   216  TYR216      0.1605
     49  C         27.1110   25.7480   13.6440 C.2   216  TYR216      0.2264
     50  O         26.9190   26.3680   14.6970 O.2   216  TYR216     -0.2867
     51  CB        25.7600   23.7800   14.2980 C.3   216  TYR216      0.0534
     52  CG        24.6870   22.7520   14.0190 C.ar  216  TYR216     -0.0201
     53  CD1       23.4940   23.1050   13.3940 C.ar  216  TYR216     -0.0009
     54  CD2       24.8560   21.4230   14.3680 C.ar  216  TYR216     -0.0009
     55  CE1       22.5260   22.1450   13.1450 C.ar  216  TYR216      0.0417
     56  CE2       23.8950   20.4460   14.1300 C.ar  216  TYR216      0.0417
     57  CZ        22.7270   20.8250   13.5160 C.ar  216  TYR216      0.1957
     58  OH        21.7460   19.9020   13.2590 O.3   216  TYR216     -0.2866
     59  N         25.9420   29.4180   14.6240 N.3   219  PHE219     -0.1241
     60  CA        25.0560   29.3370   15.7830 C.3   219  PHE219      0.1605
     61  C         25.8820   29.2720   17.0670 C.2   219  PHE219      0.2264
     62  O         25.5160   29.9070   18.0620 O.2   219  PHE219     -0.2867
     63  CB        24.1190   28.1270   15.6940 C.3   219  PHE219      0.0534
     64  CG        23.1480   28.0400   16.8680 C.ar  219  PHE219     -0.0203
     65  CD1       21.9430   28.7230   16.8060 C.ar  219  PHE219     -0.0042
     66  CD2       23.4490   27.2770   18.0020 C.ar  219  PHE219     -0.0042
     67  CE1       21.0140   28.6580   17.8270 C.ar  219  PHE219     -0.0003
     68  CE2       22.5280   27.2400   19.0130 C.ar  219  PHE219     -0.0003
     69  CZ        21.3390   27.9290   18.9550 C.ar  219  PHE219     -0.0000
     70  N         16.1380   19.2910   10.7430 N.3   263  LYS263     -0.1245
     71  CA        17.2590   20.2140   10.9460 C.3   263  LYS263      0.1561
     72  C         18.5890   19.5100   10.7800 C.2   263  LYS263      0.2260
     73  O         18.7540   18.4960   11.4690 O.2   263  LYS263     -0.2867
     74  CB        17.2200   20.8070   12.3610 C.3   263  LYS263      0.0271
     75  CG        18.4780   21.6020   12.7210 C.3   263  LYS263      0.0035
     76  CD        18.2560   22.2810   14.0690 C.3   263  LYS263      0.0206
     77  CE        19.4730   23.1010   14.4890 C.3   263  LYS263      0.1093
     78  NZ        19.2860   23.5300   15.9100 N.3   263  LYS263     -0.1314
     79  N         14.3210   23.8130    9.4890 N.3   287  TYR287     -0.1241
     80  CA        15.2030   24.8210   10.0940 C.3   287  TYR287      0.1605
     81  C         16.4230   25.0310    9.1730 C.2   287  TYR287      0.2264
     82  O         17.2960   24.1790    9.0630 O.2   287  TYR287     -0.2867
     83  CB        15.6480   24.4390   11.4980 C.3   287  TYR287      0.0534
     84  CG        16.1840   25.5360   12.3910 C.ar  287  TYR287     -0.0201
     85  CD1       15.8190   25.5350   13.7430 C.ar  287  TYR287     -0.0009
     86  CD2       17.0110   26.5630   11.9980 C.ar  287  TYR287     -0.0009
     87  CE1       16.2940   26.5270   14.5990 C.ar  287  TYR287      0.0417
     88  CE2       17.5060   27.5720   12.8030 C.ar  287  TYR287      0.0417
     89  CZ        17.1160   27.5200   14.1280 C.ar  287  TYR287      0.1957
     90  OH        17.6020   28.5240   14.9380 O.3   287  TYR287     -0.2866
     91  N         19.5680   26.3310    8.9310 N.3   289  VAL289     -0.1231
     92  CA        20.4840   26.6000   10.0570 C.3   289  VAL289      0.1692
     93  C         21.6020   27.5680    9.7070 C.2   289  VAL289      0.2592
     94  O         21.8420   27.9380    8.5370 O.2   289  VAL289     -0.2718
     95  CB        21.1040   25.2950   10.5900 C.3   289  VAL289      0.0266
     96  CG1       19.9830   24.3460   11.0220 C.3   289  VAL289      0.0020
     97  CG2       22.0160   24.6150    9.5880 C.3   289  VAL289      0.0020
     98  N         22.2960   27.9410   10.7870 N.am  290  SER290     -0.1952
     99  CA        23.3040   28.9940   10.7160 C.3   290  SER290      0.1924
    100  C         24.3020   28.7360    9.6060 C.2   290  SER290      0.2314
    101  O         24.6220   29.6660    8.8430 O.2   290  SER290     -0.2863
    102  CB        24.0210   29.1380   12.0730 C.3   290  SER290      0.2116
    103  OG        24.6010   27.9320   12.4930 O.3   290  SER290     -0.2180
    104  N         16.8610   32.5350    9.1460 N.3   329  TYR329     -0.1241
    105  CA        17.5140   33.8230    9.4170 C.3   329  TYR329      0.1605
    106  C         17.2320   34.7970    8.2890 C.2   329  TYR329      0.2264
    107  O         17.4580   36.0100    8.3840 O.2   329  TYR329     -0.2867
    108  CB        19.0260   33.6670    9.6820 C.3   329  TYR329      0.0534
    109  CG        19.2630   32.7300   10.8540 C.ar  329  TYR329     -0.0201
    110  CD1       19.6720   31.4370   10.6090 C.ar  329  TYR329     -0.0009
    111  CD2       19.0600   33.1090   12.1880 C.ar  329  TYR329     -0.0009
    112  CE1       19.9040   30.5130   11.6200 C.ar  329  TYR329      0.0417
    113  CE2       19.2850   32.1940   13.2060 C.ar  329  TYR329      0.0417
    114  CZ        19.7020   30.9090   12.9330 C.ar  329  TYR329      0.1957
    115  OH        19.9380   29.9710   13.9160 O.3   329  TYR329     -0.2866
@<TRIPOS>BOND
     1   106   107    2
     2   106   105    1
     3    94    93    2
     4   101   100    2
     5    91    92    1
     6    82    81    2
     7   104   105    1
     8    81    80    1
     9   105   108    1
    10    79    80    1
    11    97    95    1
    12   100    99    1
    13   108   109    1
    14    93    92    1
    15    93    98   am
    16    92    95    1
    17    80    83    1
    18    95    96    1
    19   110   109   ar
    20   110   112   ar
    21    99    98    1
    22    99   102    1
    23    70    71    1
    24    72    71    1
    25    72    73    2
    26   109   111   ar
    27    71    74    1
    28    83    84    1
    29   112   114   ar
    30    47    48    1
    31    86    84   ar
    32    86    88   ar
    33   102   103    1
    34   111   113   ar
    35    74    75    1
    36    84    85   ar
    37    75    76    1
    38    88    89   ar
    39   114   113   ar
    40   114   115    1
    41    55    53   ar
    42    55    57   ar
    43    48    49    1
    44    48    51    1
    45    58    57    1
    46    53    52   ar
    47    57    56   ar
    48    49    50    2
    49    85    87   ar
    50    38    39    1
    51    40    39    1
    52    40    41    2
    53    52    51    1
    54    52    54   ar
    55    39    42    1
    56    76    77    1
    57    89    87   ar
    58    89    90    1
    59    56    54   ar
    60    77    78    1
    61    59    60    1
    62    42    43    1
    63    43    44    1
    64    63    60    1
    65    63    64    1
    66    60    61    1
    67    33    35   ar
    68    33    31   ar
    69    35    36   ar
    70    28    27    1
    71    28    29    2
    72    27    30    1
    73    27    26    1
    74    44    45    1
    75    65    64   ar
    76    65    67   ar
    77    64    66   ar
    78    30    31    1
    79    61    62    2
    80    45    46    1
    81    31    32   ar
    82    36    37    1
    83    36    34   ar
    84    67    69   ar
    85    66    68   ar
    86     9    11   ar
    87     9     7   ar
    88    32    34   ar
    89    11    10   ar
    90    69    68   ar
    91     7     6   ar
    92    10     8   ar
    93    24    21    1
    94    24    25    1
    95     6     8   ar
    96     6     5    1
    97    23    22    2
    98    21    22    1
    99    21    20    1
   100    18    17   ar
   101     5     2    1
   102    17    16    1
   103    17    19   ar
   104    16    13    1
   105     1     2    1
   106    13    12    1
   107    13    14    1
   108     2     3    1
   109     4     3    2
   110    14    15    2
