@<TRIPOS>MOLECULE
tmp/1h7oA00.pdb
 115 110 0 0 0
SMALL
GASTEIGER

@<TRIPOS>ATOM
      1  N         15.9220   32.0800   21.7720 N.3    89  PHE89      -0.1241
      2  CA        17.1120   31.4990   22.3530 C.3    89  PHE89       0.1605
      3  C         17.7180   32.5060   23.3450 C.2    89  PHE89       0.2264
      4  O         17.9020   33.6710   22.9910 O.2    89  PHE89      -0.2867
      5  CB        18.1790   31.1860   21.3210 C.3    89  PHE89       0.0534
      6  CG        17.7950   30.1820   20.2430 C.ar   89  PHE89      -0.0203
      7  CD1       17.1090   30.5960   19.1170 C.ar   89  PHE89      -0.0042
      8  CD2       18.1470   28.8550   20.3990 C.ar   89  PHE89      -0.0042
      9  CE1       16.7770   29.6670   18.1380 C.ar   89  PHE89      -0.0003
     10  CE2       17.8180   27.9270   19.4240 C.ar   89  PHE89      -0.0003
     11  CZ        17.1360   28.3470   18.3000 C.ar   89  PHE89      -0.0000
     12  N         12.9760   27.6980   22.0390 N.3   131  ASP131     -0.1239
     13  CA        13.9100   26.5840   22.0760 C.3   131  ASP131      0.1674
     14  C         14.0440   26.0410   23.5000 C.2   131  ASP131      0.2266
     15  O         14.2770   26.7860   24.4610 O.2   131  ASP131     -0.2867
     16  CB        15.2820   27.0140   21.5680 C.3   131  ASP131      0.1410
     17  CG        16.1530   25.7930   21.3450 C.2   131  ASP131      0.3668
     18  OD1       15.9380   25.1400   20.2960 O.co2 131  ASP131     -0.2456
     19  OD2       17.0160   25.5170   22.1980 O.co2 131  ASP131     -0.2456
     20  N         15.1840   20.9160   21.5950 N.3   179  SER179     -0.1217
     21  CA        16.2140   20.6530   20.5940 C.3   179  SER179      0.1889
     22  C         17.3200   19.7250   21.0660 C.2   179  SER179      0.2288
     23  O         18.3930   19.6360   20.4660 O.2   179  SER179     -0.2866
     24  CB        16.8120   22.0000   20.1350 C.3   179  SER179      0.2089
     25  OG        17.6100   22.5400   21.1810 O.3   179  SER179     -0.2183
     26  N         12.1600   19.0720   17.7040 N.3   207  TYR207     -0.1241
     27  CA        13.2600   18.8060   16.7710 C.3   207  TYR207      0.1605
     28  C         13.4000   17.2890   16.6830 C.2   207  TYR207      0.2264
     29  O         14.2250   16.6430   17.3260 O.2   207  TYR207     -0.2867
     30  CB        14.5760   19.4130   17.1920 C.3   207  TYR207      0.0534
     31  CG        14.7310   20.9060   17.2110 C.ar  207  TYR207     -0.0201
     32  CD1       14.1480   21.6480   18.2240 C.ar  207  TYR207     -0.0009
     33  CD2       15.4630   21.5870   16.2490 C.ar  207  TYR207     -0.0009
     34  CE1       14.2830   23.0110   18.2680 C.ar  207  TYR207      0.0417
     35  CE2       15.6040   22.9560   16.2830 C.ar  207  TYR207      0.0417
     36  CZ        15.0040   23.6660   17.3070 C.ar  207  TYR207      0.1957
     37  OH        15.1160   25.0320   17.3800 O.3   207  TYR207     -0.2866
     38  N         17.0220   15.9990   14.2300 N.3   210  LYS210     -0.1245
     39  CA        18.0910   17.0000   14.2350 C.3   210  LYS210      0.1561
     40  C         19.4050   16.2330   14.0820 C.2   210  LYS210      0.2260
     41  O         19.6710   15.3610   14.9100 O.2   210  LYS210     -0.2867
     42  CB        18.0400   17.8290   15.5060 C.3   210  LYS210      0.0271
     43  CG        19.1440   18.8540   15.6790 C.3   210  LYS210      0.0035
     44  CD        19.0990   19.5180   17.0600 C.3   210  LYS210      0.0206
     45  CE        20.5220   19.6200   17.5940 C.3   210  LYS210      0.1093
     46  NZ        20.7030   20.7310   18.5690 N.3   210  LYS210     -0.1314
     47  N         26.5680   23.7590   11.8670 N.3   216  TYR216     -0.1241
     48  CA        26.1190   24.5060   13.0370 C.3   216  TYR216      0.1605
     49  C         26.9570   25.7070   13.4360 C.2   216  TYR216      0.2264
     50  O         26.5900   26.4540   14.3530 O.2   216  TYR216     -0.2867
     51  CB        26.1110   23.5030   14.2180 C.3   216  TYR216      0.0534
     52  CG        24.9980   22.4940   13.9950 C.ar  216  TYR216     -0.0201
     53  CD1       23.7320   22.9600   13.6700 C.ar  216  TYR216     -0.0009
     54  CD2       25.2140   21.1280   14.0910 C.ar  216  TYR216     -0.0009
     55  CE1       22.7030   22.0570   13.4550 C.ar  216  TYR216      0.0417
     56  CE2       24.1850   20.2280   13.8810 C.ar  216  TYR216      0.0417
     57  CZ        22.9310   20.7110   13.5650 C.ar  216  TYR216      0.1957
     58  OH        21.9010   19.8260   13.3540 O.3   216  TYR216     -0.2866
     59  N         26.1450   29.5390   14.7080 N.3   219  PHE219     -0.1241
     60  CA        25.2190   29.5330   15.8280 C.3   219  PHE219      0.1605
     61  C         25.9090   29.5350   17.1900 C.2   219  PHE219      0.2264
     62  O         25.5670   30.3240   18.0730 O.2   219  PHE219     -0.2867
     63  CB        24.3140   28.2930   15.7550 C.3   219  PHE219      0.0534
     64  CG        23.4470   28.0760   16.9860 C.ar  219  PHE219     -0.0203
     65  CD1       22.2930   28.8140   17.1730 C.ar  219  PHE219     -0.0042
     66  CD2       23.7810   27.1340   17.9460 C.ar  219  PHE219     -0.0042
     67  CE1       21.4930   28.6220   18.2840 C.ar  219  PHE219     -0.0003
     68  CE2       22.9970   26.9450   19.0660 C.ar  219  PHE219     -0.0003
     69  CZ        21.8480   27.6930   19.2410 C.ar  219  PHE219     -0.0000
     70  N         16.2640   19.4220   10.9960 N.3   263  LYS263     -0.1245
     71  CA        17.3850   20.3630   11.0880 C.3   263  LYS263      0.1561
     72  C         18.6790   19.6050   10.8700 C.2   263  LYS263      0.2260
     73  O         18.8810   18.5620   11.5060 O.2   263  LYS263     -0.2867
     74  CB        17.3590   21.0690   12.4470 C.3   263  LYS263      0.0271
     75  CG        18.6320   21.8280   12.8230 C.3   263  LYS263      0.0035
     76  CD        18.5050   22.3540   14.2570 C.3   263  LYS263      0.0206
     77  CE        19.4520   23.5160   14.5290 C.3   263  LYS263      0.1093
     78  NZ        19.2980   23.9540   15.9340 N.3   263  LYS263     -0.1314
     79  N         14.3860   23.9310    9.5180 N.3   287  TYR287     -0.1241
     80  CA        15.2540   24.9310   10.1430 C.3   287  TYR287      0.1605
     81  C         16.4500   25.1820    9.2250 C.2   287  TYR287      0.2264
     82  O         17.3270   24.3280    9.1010 O.2   287  TYR287     -0.2867
     83  CB        15.7410   24.5300   11.5300 C.3   287  TYR287      0.0534
     84  CG        16.3150   25.6070   12.4330 C.ar  287  TYR287     -0.0201
     85  CD1       15.7260   25.8320   13.6780 C.ar  287  TYR287     -0.0009
     86  CD2       17.4100   26.3930   12.1190 C.ar  287  TYR287     -0.0009
     87  CE1       16.2090   26.7990   14.5480 C.ar  287  TYR287      0.0417
     88  CE2       17.9070   27.3650   12.9670 C.ar  287  TYR287      0.0417
     89  CZ        17.2920   27.5590   14.1870 C.ar  287  TYR287      0.1957
     90  OH        17.7810   28.5250   15.0440 O.3   287  TYR287     -0.2866
     91  N         19.6880   26.4110    9.0920 N.3   289  VAL289     -0.1231
     92  CA        20.6610   26.6250   10.1470 C.3   289  VAL289      0.1692
     93  C         21.7890   27.5640    9.7370 C.2   289  VAL289      0.2592
     94  O         21.9910   27.8990    8.5780 O.2   289  VAL289     -0.2718
     95  CB        21.2850   25.2980   10.6240 C.3   289  VAL289      0.0266
     96  CG1       20.1710   24.3000   10.9350 C.3   289  VAL289      0.0020
     97  CG2       22.2610   24.7300    9.6090 C.3   289  VAL289      0.0020
     98  N         22.5360   27.9790   10.7560 N.am  290  SER290     -0.1952
     99  CA        23.5180   29.0530   10.6210 C.3   290  SER290      0.1924
    100  C         24.5590   28.7480    9.5610 C.2   290  SER290      0.2314
    101  O         24.8920   29.6120    8.7390 O.2   290  SER290     -0.2863
    102  CB        24.1630   29.3160   11.9920 C.3   290  SER290      0.2116
    103  OG        24.7290   28.1110   12.4830 O.3   290  SER290     -0.2180
    104  N         16.8540   32.6770    9.1620 N.3   329  TYR329     -0.1241
    105  CA        17.5030   33.9660    9.3650 C.3   329  TYR329      0.1605
    106  C         17.2790   34.9060    8.1880 C.2   329  TYR329      0.2264
    107  O         17.6120   36.0920    8.2550 O.2   329  TYR329     -0.2867
    108  CB        19.0050   33.7810    9.6300 C.3   329  TYR329      0.0534
    109  CG        19.2480   32.8500   10.7970 C.ar  329  TYR329     -0.0201
    110  CD1       19.7890   31.5930   10.5640 C.ar  329  TYR329     -0.0009
    111  CD2       18.9270   33.2220   12.1060 C.ar  329  TYR329     -0.0009
    112  CE1       20.0180   30.7240   11.6110 C.ar  329  TYR329      0.0417
    113  CE2       19.1590   32.3460   13.1570 C.ar  329  TYR329      0.0417
    114  CZ        19.7030   31.1060   12.8990 C.ar  329  TYR329      0.1957
    115  OH        19.9430   30.2070   13.9200 O.3   329  TYR329     -0.2866
@<TRIPOS>BOND
     1   106   107    2
     2   106   105    1
     3    94    93    2
     4   101   100    2
     5    91    92    1
     6    82    81    2
     7   104   105    1
     8    81    80    1
     9   105   108    1
    10    79    80    1
    11   100    99    1
    12    97    95    1
    13   108   109    1
    14    93    92    1
    15    93    98   am
    16    80    83    1
    17    92    95    1
    18   110   109   ar
    19   110   112   ar
    20    99    98    1
    21    99   102    1
    22    95    96    1
    23   109   111   ar
    24    72    71    1
    25    72    73    2
    26    70    71    1
    27    71    74    1
    28    83    84    1
    29   112   114   ar
    30    47    48    1
    31   102   103    1
    32   111   113   ar
    33    86    84   ar
    34    86    88   ar
    35    84    85   ar
    36    74    75    1
    37    75    76    1
    38   114   113   ar
    39   114   115    1
    40    88    89   ar
    41    48    49    1
    42    48    51    1
    43    58    57    1
    44    49    50    2
    45    55    57   ar
    46    55    53   ar
    47    57    56   ar
    48    53    52   ar
    49    85    87   ar
    50    56    54   ar
    51    52    54   ar
    52    52    51    1
    53    40    39    1
    54    40    41    2
    55    89    87   ar
    56    89    90    1
    57    38    39    1
    58    39    42    1
    59    76    77    1
    60    77    78    1
    61    59    60    1
    62    42    43    1
    63    43    44    1
    64    63    60    1
    65    63    64    1
    66    60    61    1
    67    33    35   ar
    68    33    31   ar
    69    35    36   ar
    70    28    27    1
    71    28    29    2
    72    27    30    1
    73    27    26    1
    74    64    65   ar
    75    64    66   ar
    76    44    45    1
    77    65    67   ar
    78    61    62    2
    79    30    31    1
    80    31    32   ar
    81    36    37    1
    82    36    34   ar
    83    45    46    1
    84    66    68   ar
    85     9    11   ar
    86     9     7   ar
    87    32    34   ar
    88    67    69   ar
    89    11    10   ar
    90    68    69   ar
    91     7     6   ar
    92    10     8   ar
    93    24    21    1
    94    24    25    1
    95     6     8   ar
    96     6     5    1
    97    18    17   ar
    98    23    22    2
    99    21    22    1
   100    21    20    1
   101     5     2    1
   102    17    16    1
   103    17    19   ar
   104    16    13    1
   105     1     2    1
   106    12    13    1
   107    13    14    1
   108     2     3    1
   109     4     3    2
   110    14    15    2
