@<TRIPOS>MOLECULE
tmp/1h7pA00.pdb
 139 132 0 0 0
SMALL
GASTEIGER

@<TRIPOS>ATOM
      1  N         16.1420   32.1710   21.7790 N.3    89  PHE89      -0.1241
      2  CA        17.3370   31.5570   22.2910 C.3    89  PHE89       0.1605
      3  C         17.9430   32.5170   23.3380 C.2    89  PHE89       0.2264
      4  O         18.0820   33.7000   23.0350 O.2    89  PHE89      -0.2867
      5  CB        18.3870   31.2850   21.2230 C.3    89  PHE89       0.0534
      6  CG        17.9650   30.2260   20.2090 C.ar   89  PHE89      -0.0203
      7  CD1       17.1990   30.6320   19.1250 C.ar   89  PHE89      -0.0042
      8  CD2       18.3560   28.9170   20.3860 C.ar   89  PHE89      -0.0042
      9  CE1       16.8160   29.6680   18.1960 C.ar   89  PHE89      -0.0003
     10  CE2       17.9710   27.9470   19.4670 C.ar   89  PHE89      -0.0003
     11  CZ        17.2060   28.3660   18.3900 C.ar   89  PHE89      -0.0000
     12  N         13.1040   27.7970   22.1890 N.3   131  ASP131     -0.1239
     13  CA        14.0040   26.6520   22.1450 C.3   131  ASP131      0.1674
     14  C         14.0780   26.0760   23.5620 C.2   131  ASP131      0.2266
     15  O         14.1650   26.8290   24.5260 O.2   131  ASP131     -0.2867
     16  CB        15.3790   27.0410   21.6290 C.3   131  ASP131      0.1410
     17  CG        16.2610   25.8160   21.4280 C.2   131  ASP131      0.3668
     18  OD1       16.1060   25.1110   20.4080 O.co2 131  ASP131     -0.2456
     19  OD2       17.1100   25.5740   22.3170 O.co2 131  ASP131     -0.2456
     20  N         22.0680   23.4280   26.7010 N.3   135  CYS135     -0.1221
     21  CA        23.4350   23.6740   26.2510 C.3   135  CYS135      0.1808
     22  C         23.8570   25.1390   26.3530 C.2   135  CYS135      0.2601
     23  O         25.0630   25.3590   26.4760 O.2   135  CYS135     -0.2717
     24  CB        23.6600   23.1970   24.8100 C.3   135  CYS135      0.0970
     25  SG        22.3780   23.7810   23.6490 S.3   135  CYS135     -0.0800
     26  N         22.9380   26.1050   26.3020 N.am  136  GLU136     -0.1979
     27  CA        23.3700   27.4940   26.4570 C.3   136  GLU136      0.1602
     28  C         23.5410   27.8750   27.9310 C.2   136  GLU136      0.2287
     29  O         23.8600   29.0300   28.2120 O.2   136  GLU136     -0.2864
     30  CB        22.3680   28.4600   25.8250 C.3   136  GLU136      0.0415
     31  CG        22.4220   28.4520   24.2990 C.3   136  GLU136      0.1163
     32  CD        21.0580   28.4530   23.6570 C.2   136  GLU136      0.3649
     33  OE1       20.7530   27.4660   22.9490 O.co2 136  GLU136     -0.2457
     34  OE2       20.3020   29.4360   23.8410 O.co2 136  GLU136     -0.2457
     35  N         15.2120   20.8990   21.5540 N.3   179  SER179     -0.1217
     36  CA        16.2860   20.7110   20.6000 C.3   179  SER179      0.1889
     37  C         17.3980   19.7970   21.0950 C.2   179  SER179      0.2288
     38  O         18.4620   19.6760   20.4830 O.2   179  SER179     -0.2866
     39  CB        16.8810   22.0750   20.1990 C.3   179  SER179      0.2089
     40  OG        17.5250   22.6630   21.3240 O.3   179  SER179     -0.2183
     41  N         12.1800   19.1400   17.7730 N.3   207  TYR207     -0.1241
     42  CA        13.2580   18.8610   16.8170 C.3   207  TYR207      0.1605
     43  C         13.4450   17.3420   16.7940 C.2   207  TYR207      0.2264
     44  O         14.2070   16.7150   17.5330 O.2   207  TYR207     -0.2867
     45  CB        14.5620   19.5260   17.1380 C.3   207  TYR207      0.0534
     46  CG        14.6980   21.0030   17.3110 C.ar  207  TYR207     -0.0201
     47  CD1       14.0340   21.7540   18.2680 C.ar  207  TYR207     -0.0009
     48  CD2       15.5640   21.6660   16.4470 C.ar  207  TYR207     -0.0009
     49  CE1       14.2140   23.1190   18.3590 C.ar  207  TYR207      0.0417
     50  CE2       15.7580   23.0210   16.5420 C.ar  207  TYR207      0.0417
     51  CZ        15.0850   23.7390   17.4950 C.ar  207  TYR207      0.1957
     52  OH        15.3200   25.0840   17.5480 O.3   207  TYR207     -0.2866
     53  N         17.1270   16.0030   14.1690 N.3   210  LYS210     -0.1245
     54  CA        18.2440   16.9480   14.2290 C.3   210  LYS210      0.1561
     55  C         19.5530   16.1950   14.0770 C.2   210  LYS210      0.2260
     56  O         19.8810   15.2850   14.8530 O.2   210  LYS210     -0.2867
     57  CB        18.1960   17.7510   15.5240 C.3   210  LYS210      0.0271
     58  CG        19.4250   18.6140   15.7650 C.3   210  LYS210      0.0035
     59  CD        19.1780   19.5030   16.9860 C.3   210  LYS210      0.0206
     60  CE        20.4990   19.9160   17.6200 C.3   210  LYS210      0.1093
     61  NZ        20.3070   21.0210   18.6090 N.3   210  LYS210     -0.1314
     62  N         26.7270   23.8440   11.8340 N.3   216  TYR216     -0.1241
     63  CA        26.3360   24.6880   12.9620 C.3   216  TYR216      0.1605
     64  C         27.4110   25.6690   13.4250 C.2   216  TYR216      0.2264
     65  O         27.2250   26.2760   14.4890 O.2   216  TYR216     -0.2867
     66  CB        25.9540   23.8300   14.1720 C.3   216  TYR216      0.0534
     67  CG        24.8500   22.8360   13.9000 C.ar  216  TYR216     -0.0201
     68  CD1       23.7640   23.1270   13.0850 C.ar  216  TYR216     -0.0009
     69  CD2       24.9260   21.5780   14.4770 C.ar  216  TYR216     -0.0009
     70  CE1       22.7910   22.1650   12.8740 C.ar  216  TYR216      0.0417
     71  CE2       23.9540   20.6180   14.2720 C.ar  216  TYR216      0.0417
     72  CZ        22.8860   20.9280   13.4600 C.ar  216  TYR216      0.1957
     73  OH        21.9190   19.9650   13.2660 O.3   216  TYR216     -0.2866
     74  N         26.5130   29.2440   14.6670 N.3   219  PHE219     -0.1241
     75  CA        25.5630   29.2450   15.7810 C.3   219  PHE219      0.1605
     76  C         26.3140   29.3010   17.1160 C.2   219  PHE219      0.2264
     77  O         25.9100   29.9910   18.0500 O.2   219  PHE219     -0.2867
     78  CB        24.6560   28.0130   15.7820 C.3   219  PHE219      0.0534
     79  CG        23.6500   28.0210   16.9210 C.ar  219  PHE219     -0.0203
     80  CD1       22.4810   28.7550   16.8310 C.ar  219  PHE219     -0.0042
     81  CD2       23.8850   27.2930   18.0760 C.ar  219  PHE219     -0.0042
     82  CE1       21.5500   28.7750   17.8540 C.ar  219  PHE219     -0.0003
     83  CE2       22.9580   27.3070   19.0970 C.ar  219  PHE219     -0.0003
     84  CZ        21.7930   28.0430   19.0050 C.ar  219  PHE219     -0.0000
     85  N         22.7960   13.7370   18.7750 N.3   236  GLN236     -0.1245
     86  CA        22.4180   14.2310   17.4380 C.3   236  GLN236      0.1566
     87  C         22.5470   13.0760   16.4660 C.2   236  GLN236      0.2260
     88  O         23.4130   12.2030   16.5960 O.2   236  GLN236     -0.2867
     89  CB        23.3010   15.4290   17.1000 C.3   236  GLN236      0.0367
     90  CG        22.9980   16.6230   18.0040 C.3   236  GLN236      0.0905
     91  CD        23.8920   17.8130   17.7380 C.2   236  GLN236      0.2608
     92  OE1       23.6490   18.8940   18.2890 O.2   236  GLN236     -0.2717
     93  NE2       24.9080   17.6160   16.9070 N.am  236  GLN236     -0.0878
     94  N         16.2550   19.4450   10.9090 N.3   263  LYS263     -0.1245
     95  CA        17.4160   20.3370   11.0340 C.3   263  LYS263      0.1561
     96  C         18.7120   19.5780   10.8650 C.2   263  LYS263      0.2260
     97  O         18.9190   18.5480   11.5380 O.2   263  LYS263     -0.2867
     98  CB        17.3640   21.0270   12.3970 C.3   263  LYS263      0.0271
     99  CG        18.5350   21.9260   12.7340 C.3   263  LYS263      0.0035
    100  CD        18.4620   22.3190   14.2040 C.3   263  LYS263      0.0206
    101  CE        19.7710   22.9800   14.6300 C.3   263  LYS263      0.1093
    102  NZ        19.3620   23.9830   15.6610 N.3   263  LYS263     -0.1314
    103  N         14.4480   23.9400    9.4580 N.3   287  TYR287     -0.1241
    104  CA        15.3300   24.9120   10.1230 C.3   287  TYR287      0.1605
    105  C         16.5510   25.1210    9.2070 C.2   287  TYR287      0.2264
    106  O         17.4320   24.2740    9.0800 O.2   287  TYR287     -0.2867
    107  CB        15.7170   24.5150   11.5490 C.3   287  TYR287      0.0534
    108  CG        16.2550   25.6220   12.4400 C.ar  287  TYR287     -0.0201
    109  CD1       15.7890   25.7310   13.7580 C.ar  287  TYR287     -0.0009
    110  CD2       17.2050   26.5600   12.0670 C.ar  287  TYR287     -0.0009
    111  CE1       16.2780   26.7410   14.5860 C.ar  287  TYR287      0.0417
    112  CE2       17.7030   27.5640   12.8590 C.ar  287  TYR287      0.0417
    113  CZ        17.2130   27.6420   14.1600 C.ar  287  TYR287      0.1957
    114  OH        17.7050   28.6530   14.9680 O.3   287  TYR287     -0.2866
    115  N         19.6970   26.4390    9.0030 N.3   289  VAL289     -0.1231
    116  CA        20.6430   26.6540   10.1060 C.3   289  VAL289      0.1692
    117  C         21.7700   27.6100    9.7470 C.2   289  VAL289      0.2592
    118  O         21.9890   28.0060    8.5980 O.2   289  VAL289     -0.2718
    119  CB        21.2380   25.3290   10.6200 C.3   289  VAL289      0.0266
    120  CG1       20.0990   24.3950   11.0130 C.3   289  VAL289      0.0020
    121  CG2       22.1720   24.6890    9.6150 C.3   289  VAL289      0.0020
    122  N         22.5000   27.9880   10.8040 N.am  290  SER290     -0.1952
    123  CA        23.5390   29.0030   10.6910 C.3   290  SER290      0.1924
    124  C         24.5230   28.7270    9.5730 C.2   290  SER290      0.2314
    125  O         24.8310   29.6570    8.8190 O.2   290  SER290     -0.2863
    126  CB        24.2770   29.1190   12.0450 C.3   290  SER290      0.2116
    127  OG        24.8580   27.8740   12.3740 O.3   290  SER290     -0.2180
    128  N         16.9240   32.7140    9.1680 N.3   329  TYR329     -0.1241
    129  CA        17.6150   33.9840    9.4120 C.3   329  TYR329      0.1605
    130  C         17.3700   34.9570    8.2750 C.2   329  TYR329      0.2264
    131  O         17.7380   36.1300    8.3640 O.2   329  TYR329     -0.2867
    132  CB        19.1280   33.7780    9.6140 C.3   329  TYR329      0.0534
    133  CG        19.3600   32.8430   10.7940 C.ar  329  TYR329     -0.0201
    134  CD1       19.8550   31.5690   10.5910 C.ar  329  TYR329     -0.0009
    135  CD2       19.0530   33.2500   12.0990 C.ar  329  TYR329     -0.0009
    136  CE1       20.0640   30.7020   11.6590 C.ar  329  TYR329      0.0417
    137  CE2       19.2650   32.3800   13.1600 C.ar  329  TYR329      0.0417
    138  CZ        19.7650   31.1260   12.9460 C.ar  329  TYR329      0.1957
    139  OH        19.9770   30.2430   13.9900 O.3   329  TYR329     -0.2866
@<TRIPOS>BOND
     1   130   131    2
     2   130   129    1
     3   118   117    2
     4   125   124    2
     5   115   116    1
     6   106   105    2
     7   128   129    1
     8   105   104    1
     9   129   132    1
    10   103   104    1
    11   124   123    1
    12   132   133    1
    13   121   119    1
    14   117   116    1
    15   117   122   am
    16   116   119    1
    17   104   107    1
    18   134   133   ar
    19   134   136   ar
    20   119   120    1
    21   123   122    1
    22   123   126    1
    23   133   135   ar
    24    96    95    1
    25    96    97    2
    26    94    95    1
    27    95    98    1
    28   107   108    1
    29   136   138   ar
    30    62    63    1
    31   126   127    1
    32   110   108   ar
    33   110   112   ar
    34   135   137   ar
    35    98    99    1
    36   108   109   ar
    37    99   100    1
    38   112   113   ar
    39    70    68   ar
    40    70    72   ar
    41   138   137   ar
    42   138   139    1
    43    63    64    1
    44    63    66    1
    45    68    67   ar
    46    73    72    1
    47    64    65    2
    48    72    71   ar
    49   109   111   ar
    50    67    66    1
    51    67    69   ar
    52    55    54    1
    53    55    56    2
    54   113   111   ar
    55   113   114    1
    56    53    54    1
    57   100   101    1
    58    54    57    1
    59    71    69   ar
    60   101   102    1
    61    74    75    1
    62    57    58    1
    63    58    59    1
    64    75    78    1
    65    75    76    1
    66    78    79    1
    67    48    50   ar
    68    48    46   ar
    69    87    88    2
    70    87    86    1
    71    50    51   ar
    72    43    42    1
    73    43    44    2
    74    42    45    1
    75    42    41    1
    76    80    79   ar
    77    80    82   ar
    78    93    91   am
    79    79    81   ar
    80    59    60    1
    81    89    86    1
    82    89    90    1
    83    76    77    2
    84    45    46    1
    85    46    47   ar
    86    86    85    1
    87    51    52    1
    88    51    49   ar
    89    60    61    1
    90    91    90    1
    91    91    92    2
    92    82    84   ar
    93    81    83   ar
    94     9    11   ar
    95     9     7   ar
    96    47    49   ar
    97    11    10   ar
    98    84    83   ar
    99     7     6   ar
   100    10     8   ar
   101    39    36    1
   102    39    40    1
   103     6     8   ar
   104     6     5    1
   105    18    17   ar
   106    38    37    2
   107    36    37    1
   108    36    35    1
   109     5     2    1
   110    17    16    1
   111    17    19   ar
   112    16    13    1
   113     1     2    1
   114    13    12    1
   115    13    14    1
   116     2     3    1
   117    33    32   ar
   118     4     3    2
   119    14    15    2
   120    25    24    1
   121    32    34   ar
   122    32    31    1
   123    31    30    1
   124    24    21    1
   125    30    27    1
   126    21    22    1
   127    21    20    1
   128    26    22   am
   129    26    27    1
   130    22    23    2
   131    27    28    1
   132    28    29    2
