@<TRIPOS>MOLECULE
tmp/1h7qA00.pdb
 151 146 0 0 0
SMALL
GASTEIGER

@<TRIPOS>ATOM
      1  N         11.4620   22.4950   33.0510 N.3     8  THR8       -0.1203
      2  CA        12.8730   22.5130   32.6500 C.3     8  THR8        0.1994
      3  C         13.0840   21.5180   31.5010 C.2     8  THR8        0.2619
      4  O         12.4050   20.4860   31.4170 O.2     8  THR8       -0.2717
      5  CB        13.8320   22.1850   33.8000 C.3     8  THR8        0.1784
      6  OG1       13.4150   20.9750   34.4520 O.3     8  THR8       -0.2211
      7  CG2       13.8020   23.2570   34.8710 C.3     8  THR8        0.0376
      8  N         14.0350   21.8430   30.6290 N.am    9  SER9       -0.1937
      9  CA        14.3200   21.0620   29.4230 C.3     9  SER9        0.2055
     10  C         15.8230   20.9920   29.1500 C.2     9  SER9        0.2643
     11  O         16.5130   22.0210   29.1260 O.2     9  SER9       -0.2714
     12  CB        13.6540   21.6940   28.1830 C.3     9  SER9        0.2130
     13  OG        14.2650   21.2530   26.9520 O.3     9  SER9       -0.2179
     14  N         16.3150   19.7760   28.9190 N.am   10  TYR10      -0.1973
     15  CA        17.6860   19.5740   28.4850 C.3    10  TYR10       0.1639
     16  C         17.8400   18.2850   27.7020 C.2    10  TYR10       0.2290
     17  O         17.8270   17.2130   28.2710 O.2    10  TYR10      -0.2864
     18  CB        18.6700   19.5710   29.6520 C.3    10  TYR10       0.0560
     19  CG        20.1270   19.3920   29.2300 C.ar   10  TYR10      -0.0198
     20  CD1       20.7390   20.2790   28.3460 C.ar   10  TYR10      -0.0009
     21  CD2       20.8700   18.3110   29.6900 C.ar   10  TYR10      -0.0009
     22  CE1       22.0810   20.1150   27.9630 C.ar   10  TYR10       0.0417
     23  CE2       22.2030   18.1370   29.3080 C.ar   10  TYR10       0.0417
     24  CZ        22.8040   19.0460   28.4540 C.ar   10  TYR10       0.1957
     25  OH        24.1270   18.8400   28.0560 O.3    10  TYR10      -0.2866
     26  N         16.0840   16.2390   25.6420 N.3    12  LYS12      -0.1245
     27  CA        15.1670   15.0870   25.5970 C.3    12  LYS12       0.1561
     28  C         14.2610   15.2000   24.3890 C.2    12  LYS12       0.2260
     29  O         13.0240   15.2430   24.5370 O.2    12  LYS12      -0.2867
     30  CB        14.3330   14.9950   26.8660 C.3    12  LYS12       0.0271
     31  CG        15.1510   14.5680   28.0620 C.3    12  LYS12       0.0035
     32  CD        14.2950   14.1580   29.1940 C.3    12  LYS12       0.0206
     33  CE        15.1670   13.9460   30.4360 C.3    12  LYS12       0.1093
     34  NZ        15.2480   15.1490   31.3000 N.3    12  LYS12      -0.1314
     35  N         17.9520   24.4940   28.9190 N.3    38  ASP38      -0.1239
     36  CA        19.2980   24.7160   29.4200 C.3    38  ASP38       0.1674
     37  C         20.3410   24.6290   28.3290 C.2    38  ASP38       0.2266
     38  O         21.4400   24.1090   28.5560 O.2    38  ASP38      -0.2867
     39  CB        19.6310   23.7510   30.5570 C.3    38  ASP38       0.1410
     40  CG        20.5510   24.3800   31.5780 C.2    38  ASP38       0.3668
     41  OD1       20.7510   25.6280   31.5500 O.co2  38  ASP38      -0.2456
     42  OD2       21.1180   23.7170   32.4520 O.co2  38  ASP38      -0.2456
     43  N         27.9220   22.9590   33.7670 N.3    70  ARG70      -0.1245
     44  CA        26.8370   22.0040   34.0750 C.3    70  ARG70       0.1563
     45  C         26.9540   21.3870   35.4610 C.2    70  ARG70       0.2260
     46  O         25.9830   20.8000   35.9390 O.2    70  ARG70      -0.2867
     47  CB        26.7980   20.8430   33.0850 C.3    70  ARG70       0.0307
     48  CG        26.5600   21.2050   31.6480 C.3    70  ARG70       0.0489
     49  CD        25.2350   20.7730   31.1030 C.3    70  ARG70       0.2205
     50  NE        25.0240   21.4740   29.8510 N.pl3  70  ARG70      -0.0865
     51  CZ        23.9860   22.2120   29.5950 C.cat  70  ARG70       0.5346
     52  NH1       23.0200   22.3480   30.5030 N.pl3  70  ARG70       0.1354
     53  NH2       23.9290   22.8530   28.4390 N.pl3  70  ARG70       0.1354
     54  N         21.5270   22.4660   37.8640 N.3    75  ARG75      -0.1231
     55  CA        21.0260   23.3250   36.8150 C.3    75  ARG75       0.1694
     56  C         19.5170   23.5550   36.8600 C.2    75  ARG75       0.2592
     57  O         19.0610   24.6810   36.7210 O.2    75  ARG75      -0.2718
     58  CB        21.4640   22.7870   35.4590 C.3    75  ARG75       0.0321
     59  CG        22.9660   22.9040   35.2250 C.3    75  ARG75       0.0489
     60  CD        23.4900   24.3420   35.2040 C.3    75  ARG75       0.2205
     61  NE        22.5740   25.1920   34.4580 N.pl3  75  ARG75      -0.0865
     62  CZ        22.3470   26.4680   34.7210 C.cat  75  ARG75       0.5346
     63  NH1       22.9990   27.0890   35.6990 N.pl3  75  ARG75       0.1354
     64  NH2       21.4430   27.1190   34.0260 N.pl3  75  ARG75       0.1354
     65  N         18.7380   22.4950   37.0550 N.am   76  TYR76      -0.1976
     66  CA        17.2990   22.6810   37.0390 C.3    76  TYR76       0.1639
     67  C         16.8550   23.5890   38.1930 C.2    76  TYR76       0.2290
     68  O         15.9450   24.3670   38.0430 O.2    76  TYR76      -0.2864
     69  CB        16.5360   21.3500   37.0440 C.3    76  TYR76       0.0560
     70  CG        16.8900   20.4180   38.1560 C.ar   76  TYR76      -0.0198
     71  CD1       17.9160   19.5190   38.0070 C.ar   76  TYR76      -0.0009
     72  CD2       16.1930   20.4270   39.3500 C.ar   76  TYR76      -0.0009
     73  CE1       18.2490   18.6500   38.9940 C.ar   76  TYR76       0.0417
     74  CE2       16.5150   19.5480   40.3580 C.ar   76  TYR76       0.0417
     75  CZ        17.5540   18.6580   40.1680 C.ar   76  TYR76       0.1957
     76  OH        17.9450   17.7550   41.1300 O.3    76  TYR76      -0.2866
     77  N         17.4830   27.0910   37.1170 N.3    79  LEU79      -0.1245
     78  CA        16.4880   27.4910   36.1480 C.3    79  LEU79       0.1561
     79  C         15.1660   27.7450   36.8450 C.2    79  LEU79       0.2260
     80  O         14.5030   28.7460   36.5600 O.2    79  LEU79      -0.2867
     81  CB        16.3030   26.4680   34.9880 C.3    79  LEU79       0.0270
     82  CG        17.5420   26.3110   34.1000 C.3    79  LEU79       0.0019
     83  CD1       17.3720   25.3930   32.9280 C.3    79  LEU79       0.0001
     84  CD2       18.0280   27.6750   33.5470 C.3    79  LEU79       0.0001
     85  N          8.6060   18.7190   33.8210 N.3    96  THR96      -0.1203
     86  CA         9.8570   18.4140   33.1960 C.3    96  THR96       0.1994
     87  C          9.6040   17.8750   31.8170 C.2    96  THR96       0.2618
     88  O          8.4660   17.5350   31.4350 O.2    96  THR96      -0.2717
     89  CB        10.7150   17.3860   33.9830 C.3    96  THR96       0.1784
     90  OG1       10.0550   16.0980   34.0240 O.3    96  THR96      -0.2211
     91  CG2       10.9380   17.8420   35.3990 C.3    96  THR96       0.0376
     92  N         10.6950   17.7940   31.0840 N.am   97  ASP97      -0.1959
     93  CA        10.6860   17.3140   29.7190 C.3    97  ASP97       0.1840
     94  C         10.5090   15.8000   29.5360 C.2    97  ASP97       0.2622
     95  O         10.3700   15.3660   28.4000 O.2    97  ASP97      -0.2715
     96  CB        11.9340   17.7770   28.9640 C.3    97  ASP97       0.1450
     97  CG        13.2370   17.4980   29.6960 C.2    97  ASP97       0.3671
     98  OD1       13.2500   17.0950   30.8650 O.co2  97  ASP97      -0.2456
     99  OD2       14.3280   17.6870   29.1390 O.co2  97  ASP97      -0.2456
    100  N         10.5100   15.0240   30.6220 N.am   98  ASP98      -0.1971
    101  CA        10.2420   13.5770   30.5670 C.3    98  ASP98       0.1709
    102  C          8.9920   13.1640   31.3860 C.2    98  ASP98       0.2293
    103  O          8.8260   11.9940   31.6440 O.2    98  ASP98      -0.2864
    104  CB        11.4380   12.7050   31.0360 C.3    98  ASP98       0.1436
    105  CG        11.9710   13.0690   32.4010 C.2    98  ASP98       0.3671
    106  OD1       11.4460   13.9380   33.1280 O.co2  98  ASP98      -0.2456
    107  OD2       12.9820   12.5070   32.8640 O.co2  98  ASP98      -0.2456
    108  N          9.0240   15.7670   42.2450 N.3   155  HIS155     -0.1241
    109  CA         9.1410   17.0140   41.5220 C.3   155  HIS155      0.1621
    110  C          7.8630   17.4410   40.8370 C.2   155  HIS155      0.2264
    111  O          7.3820   18.5550   41.0120 O.2   155  HIS155     -0.2867
    112  CB        10.2340   16.8020   40.4470 C.3   155  HIS155      0.0745
    113  CG        10.8410   18.0680   39.9430 C.ar  155  HIS155      0.0817
    114  ND1       12.1560   18.4140   40.1910 N.ar  155  HIS155     -0.2268
    115  CD2       10.3300   19.0600   39.1800 C.ar  155  HIS155      0.1154
    116  CE1       12.4200   19.5720   39.6110 C.ar  155  HIS155      0.1986
    117  NE2       11.3200   19.9910   39.0020 N.ar  155  HIS155     -0.2212
    118  N         22.3050   17.3440   43.4330 N.3   183  TYR183     -0.1227
    119  CA        21.9630   17.2120   42.0260 C.3   183  TYR183      0.1736
    120  C         20.9760   16.1060   41.7320 C.2   183  TYR183      0.2595
    121  O         20.1150   16.2820   40.8970 O.2   183  TYR183     -0.2718
    122  CB        23.2190   16.9740   41.1840 C.3   183  TYR183      0.0548
    123  CG        23.2640   17.7690   39.9040 C.ar  183  TYR183     -0.0200
    124  CD1       22.3150   17.5760   38.9010 C.ar  183  TYR183     -0.0009
    125  CD2       24.2430   18.7270   39.7090 C.ar  183  TYR183     -0.0009
    126  CE1       22.3730   18.3040   37.7310 C.ar  183  TYR183      0.0417
    127  CE2       24.3090   19.4600   38.5510 C.ar  183  TYR183      0.0417
    128  CZ        23.3850   19.2460   37.5590 C.ar  183  TYR183      0.1957
    129  OH        23.4440   20.0020   36.4150 O.3   183  TYR183     -0.2866
    130  N         21.1250   14.9580   42.3750 N.am  184  ARG184     -0.1980
    131  CA        20.2740   13.8160   42.0960 C.3   184  ARG184      0.1597
    132  C         18.8590   13.9220   42.6710 C.2   184  ARG184      0.2287
    133  O         17.9490   13.2480   42.2070 O.2   184  ARG184     -0.2864
    134  CB        20.8770   12.5270   42.6920 C.3   184  ARG184      0.0334
    135  CG        22.3660   12.3360   42.6250 C.3   184  ARG184      0.0492
    136  CD        22.8580   11.5360   41.4320 C.3   184  ARG184      0.2205
    137  NE        21.9420   10.4880   40.9850 N.pl3 184  ARG184     -0.0865
    138  CZ        22.1050    9.8050   39.8620 C.cat 184  ARG184      0.5346
    139  NH1       23.1490   10.0590   39.0820 N.pl3 184  ARG184      0.1354
    140  NH2       21.2250    8.8770   39.5140 N.pl3 184  ARG184      0.1354
    141  N         30.5530   14.1420   32.8890 N.3   217  PHE217     -0.1241
    142  CA        29.6080   14.8430   33.7480 C.3   217  PHE217      0.1605
    143  C         29.5700   14.1950   35.1210 C.2   217  PHE217      0.2264
    144  O         29.8330   14.8430   36.1390 O.2   217  PHE217     -0.2867
    145  CB        28.2130   14.8590   33.1570 C.3   217  PHE217      0.0534
    146  CG        27.2000   15.5170   34.0440 C.ar  217  PHE217     -0.0203
    147  CD1       27.0110   16.8820   34.0010 C.ar  217  PHE217     -0.0042
    148  CD2       26.4420   14.7660   34.9220 C.ar  217  PHE217     -0.0042
    149  CE1       26.0850   17.4850   34.8120 C.ar  217  PHE217     -0.0003
    150  CE2       25.5050   15.3630   35.7270 C.ar  217  PHE217     -0.0003
    151  CZ        25.3250   16.7270   35.6740 C.ar  217  PHE217     -0.0000
@<TRIPOS>BOND
     1    28    29    2
     2    28    27    1
     3    27    26    1
     4    27    30    1
     5    30    31    1
     6    13    12    1
     7    16    17    2
     8    16    15    1
     9    22    20   ar
    10    22    24   ar
    11    25    24    1
    12    31    32    1
    13    12     9    1
    14    37    38    2
    15    37    36    1
    16    20    19   ar
    17    95    94    2
    18    53    51    1
    19    24    23   ar
    20    15    14    1
    21    15    18    1
    22    14    10   am
    23    35    36    1
    24    96    97    1
    25    96    93    1
    26    11    10    2
    27    99    97   ar
    28    10     9    1
    29    32    33    1
    30    19    18    1
    31    19    21   ar
    32    23    21   ar
    33    36    39    1
    34     9     8    1
    35    94    93    1
    36    94   100   am
    37    51    50    2
    38    51    52    1
    39    97    98   ar
    40    93    92    1
    41    50    49    1
    42    33    34    1
    43    39    40    1
    44   101   100    1
    45   101   104    1
    46   101   102    1
    47     8     3   am
    48   104   105    1
    49    92    87   am
    50    49    48    1
    51   102   103    2
    52     4     3    2
    53    88    87    2
    54     3     2    1
    55    41    40   ar
    56    40    42   ar
    57    48    47    1
    58    87    86    1
    59   105   107   ar
    60   105   106   ar
    61     2     1    1
    62     2     5    1
    63   141   142    1
    64    83    82    1
    65    47    44    1
    66   145   142    1
    67   145   146    1
    68    86    85    1
    69    86    89    1
    70    84    82    1
    71   142   143    1
    72    43    44    1
    73     5     6    1
    74     5     7    1
    75    89    90    1
    76    89    91    1
    77   147   146   ar
    78   147   149   ar
    79    64    62    1
    80   146   148   ar
    81    44    45    1
    82    82    81    1
    83    61    62    2
    84    61    60    1
    85    62    63    1
    86   149   151   ar
    87   148   150   ar
    88    81    78    1
    89   143   144    2
    90    60    59    1
    91    59    58    1
    92    58    55    1
    93    45    46    2
    94   151   150   ar
    95    78    79    1
    96    78    77    1
    97   129   128    1
    98    80    79    2
    99    57    56    2
   100    55    56    1
   101    55    54    1
   102    56    65   am
   103    66    69    1
   104    66    65    1
   105    66    67    1
   106    69    70    1
   107   128   126   ar
   108   128   127   ar
   109   126   124   ar
   110    71    70   ar
   111    71    73   ar
   112    68    67    2
   113    70    72   ar
   114   127   125   ar
   115   124   123   ar
   116    73    75   ar
   117   117   115   ar
   118   117   116   ar
   119   139   138    1
   120   115   113   ar
   121    72    74   ar
   122   140   138    1
   123   116   114   ar
   124   125   123   ar
   125   138   137    2
   126   123   122    1
   127   113   114   ar
   128   113   112    1
   129    75    74   ar
   130    75    76    1
   131   112   109    1
   132   110   111    2
   133   110   109    1
   134   121   120    2
   135   137   136    1
   136   122   119    1
   137   136   135    1
   138   109   108    1
   139   120   119    1
   140   120   130   am
   141   119   118    1
   142   131   130    1
   143   131   132    1
   144   131   134    1
   145   133   132    2
   146   135   134    1
