@<TRIPOS>MOLECULE
tmp/1h7rA00.pdb
 124 118 0 0 0
SMALL
GASTEIGER

@<TRIPOS>ATOM
      1  N         15.8790   32.0560   21.7640 N.3    89  PHE89      -0.1241
      2  CA        17.1270   31.4260   22.1700 C.3    89  PHE89       0.1605
      3  C         17.8050   32.2930   23.2480 C.2    89  PHE89       0.2264
      4  O         18.1620   33.4430   22.9810 O.2    89  PHE89      -0.2867
      5  CB        18.0730   31.2780   20.9770 C.3    89  PHE89       0.0534
      6  CG        17.7180   30.1810   20.0210 C.ar   89  PHE89      -0.0203
      7  CD1       17.2730   30.4810   18.7430 C.ar   89  PHE89      -0.0042
      8  CD2       17.9450   28.8520   20.3430 C.ar   89  PHE89      -0.0042
      9  CE1       16.9770   29.4760   17.8400 C.ar   89  PHE89      -0.0003
     10  CE2       17.6200   27.8340   19.4580 C.ar   89  PHE89      -0.0003
     11  CZ        17.1910   28.1540   18.1790 C.ar   89  PHE89      -0.0000
     12  N         12.9480   27.6720   22.3070 N.3   131  ASP131     -0.1239
     13  CA        13.7660   26.4480   22.1900 C.3   131  ASP131      0.1674
     14  C         14.0380   25.9160   23.6050 C.2   131  ASP131      0.2266
     15  O         14.3880   26.6920   24.4960 O.2   131  ASP131     -0.2867
     16  CB        15.0920   26.7810   21.5060 C.3   131  ASP131      0.1410
     17  CG        15.9540   25.5510   21.2900 C.2   131  ASP131      0.3668
     18  OD1       15.5520   24.6800   20.4900 O.co2 131  ASP131     -0.2456
     19  OD2       17.0270   25.4610   21.9220 O.co2 131  ASP131     -0.2456
     20  N         22.7830   25.9930   26.5720 N.3   136  GLU136     -0.1245
     21  CA        23.2310   27.3740   26.7230 C.3   136  GLU136      0.1567
     22  C         23.2210   27.8150   28.1780 C.2   136  GLU136      0.2260
     23  O         23.3820   29.0070   28.4700 O.2   136  GLU136     -0.2867
     24  CB        22.3570   28.3150   25.8900 C.3   136  GLU136      0.0388
     25  CG        22.6590   28.3120   24.4020 C.3   136  GLU136      0.1160
     26  CD        21.3920   28.1730   23.5760 C.2   136  GLU136      0.3649
     27  OE1       21.1790   27.0850   23.0040 O.co2 136  GLU136     -0.2457
     28  OE2       20.6210   29.1530   23.5080 O.co2 136  GLU136     -0.2457
     29  N         15.2920   20.9080   21.5840 N.3   179  SER179     -0.1217
     30  CA        16.2960   20.5830   20.5740 C.3   179  SER179      0.1889
     31  C         17.4040   19.7040   21.1390 C.2   179  SER179      0.2288
     32  O         18.4440   19.5210   20.4970 O.2   179  SER179     -0.2866
     33  CB        16.9210   21.9030   20.0610 C.3   179  SER179      0.2089
     34  OG        17.2470   22.7020   21.1910 O.3   179  SER179     -0.2183
     35  N         12.1180   18.9570   17.9740 N.3   207  TYR207     -0.1241
     36  CA        13.2140   18.8050   17.0050 C.3   207  TYR207      0.1605
     37  C         13.4350   17.2770   16.8200 C.2   207  TYR207      0.2264
     38  O         14.3900   16.7240   17.3460 O.2   207  TYR207     -0.2867
     39  CB        14.4990   19.4040   17.5780 C.3   207  TYR207      0.0534
     40  CG        14.5550   20.9080   17.6340 C.ar  207  TYR207     -0.0201
     41  CD1       13.6910   21.6390   18.4360 C.ar  207  TYR207     -0.0009
     42  CD2       15.5180   21.6040   16.9140 C.ar  207  TYR207     -0.0009
     43  CE1       13.7600   23.0170   18.5030 C.ar  207  TYR207      0.0417
     44  CE2       15.5920   22.9810   16.9710 C.ar  207  TYR207      0.0417
     45  CZ        14.7160   23.6820   17.7670 C.ar  207  TYR207      0.1957
     46  OH        14.8330   25.0530   17.8380 O.3   207  TYR207     -0.2866
     47  N         17.1760   16.1030   14.2170 N.3   210  LYS210     -0.1245
     48  CA        18.3010   17.0430   14.2860 C.3   210  LYS210      0.1561
     49  C         19.6040   16.2580   14.1030 C.2   210  LYS210      0.2260
     50  O         19.9880   15.4780   14.9740 O.2   210  LYS210     -0.2867
     51  CB        18.3040   17.7740   15.6210 C.3   210  LYS210      0.0271
     52  CG        19.6210   18.4030   16.0430 C.3   210  LYS210      0.0035
     53  CD        19.4050   19.3800   17.1930 C.3   210  LYS210      0.0206
     54  CE        20.7150   19.9200   17.7400 C.3   210  LYS210      0.1093
     55  NZ        20.8960   19.5660   19.1800 N.3   210  LYS210     -0.1314
     56  N         26.5880   23.9680   12.0400 N.3   216  TYR216     -0.1241
     57  CA        26.0280   24.8300   13.0880 C.3   216  TYR216      0.1605
     58  C         27.0260   25.8890   13.5320 C.2   216  TYR216      0.2264
     59  O         26.8230   26.5490   14.5560 O.2   216  TYR216     -0.2867
     60  CB        25.5600   23.9990   14.2730 C.3   216  TYR216      0.0534
     61  CG        24.5260   22.9420   13.9870 C.ar  216  TYR216     -0.0201
     62  CD1       23.2770   23.2710   13.4740 C.ar  216  TYR216     -0.0009
     63  CD2       24.7670   21.6100   14.3100 C.ar  216  TYR216     -0.0009
     64  CE1       22.3080   22.3050   13.2650 C.ar  216  TYR216      0.0417
     65  CE2       23.8200   20.6320   14.0610 C.ar  216  TYR216      0.0417
     66  CZ        22.5950   20.9860   13.5420 C.ar  216  TYR216      0.1957
     67  OH        21.6220   20.0350   13.3490 O.3   216  TYR216     -0.2866
     68  N         25.8420   29.7700   14.5930 N.3   219  PHE219     -0.1241
     69  CA        24.9820   29.6570   15.7520 C.3   219  PHE219      0.1605
     70  C         25.7480   29.4290   17.0400 C.2   219  PHE219      0.2264
     71  O         25.4450   30.0290   18.0750 O.2   219  PHE219     -0.2867
     72  CB        23.9180   28.5810   15.5570 C.3   219  PHE219      0.0534
     73  CG        23.0880   28.3040   16.7780 C.ar  219  PHE219     -0.0203
     74  CD1       21.8400   28.8810   16.9330 C.ar  219  PHE219     -0.0042
     75  CD2       23.5520   27.4520   17.7660 C.ar  219  PHE219     -0.0042
     76  CE1       21.0730   28.6140   18.0470 C.ar  219  PHE219     -0.0003
     77  CE2       22.7910   27.1720   18.8870 C.ar  219  PHE219     -0.0003
     78  CZ        21.5520   27.7670   19.0320 C.ar  219  PHE219     -0.0000
     79  N         16.1500   19.2190   10.7180 N.3   263  LYS263     -0.1245
     80  CA        17.2930   20.1360   10.6380 C.3   263  LYS263      0.1561
     81  C         18.6070   19.3890   10.6890 C.2   263  LYS263      0.2260
     82  O         18.7740   18.4300   11.4430 O.2   263  LYS263     -0.2867
     83  CB        17.2050   21.1870   11.7400 C.3   263  LYS263      0.0271
     84  CG        18.3560   21.1950   12.7250 C.3   263  LYS263      0.0035
     85  CD        18.0690   22.1030   13.9160 C.3   263  LYS263      0.0206
     86  CE        19.2640   22.9850   14.2220 C.3   263  LYS263      0.1093
     87  NZ        19.3350   23.4820   15.6140 N.3   263  LYS263     -0.1314
     88  N         14.3680   23.7810    9.3070 N.3   287  TYR287     -0.1241
     89  CA        15.1980   24.7970    9.9500 C.3   287  TYR287      0.1605
     90  C         16.4300   25.1100    9.1160 C.2   287  TYR287      0.2264
     91  O         17.3670   24.3190    9.0410 O.2   287  TYR287     -0.2867
     92  CB        15.5870   24.3780   11.3610 C.3   287  TYR287      0.0534
     93  CG        16.1380   25.4820   12.2350 C.ar  287  TYR287     -0.0201
     94  CD1       15.8500   25.5200   13.5970 C.ar  287  TYR287     -0.0009
     95  CD2       16.9570   26.4760   11.7170 C.ar  287  TYR287     -0.0009
     96  CE1       16.3510   26.5220   14.4120 C.ar  287  TYR287      0.0417
     97  CE2       17.4670   27.4790   12.5260 C.ar  287  TYR287      0.0417
     98  CZ        17.1560   27.4990   13.8690 C.ar  287  TYR287      0.1957
     99  OH        17.6610   28.4890   14.6820 O.3   287  TYR287     -0.2866
    100  N         19.4190   26.2010    9.1320 N.3   289  VAL289     -0.1231
    101  CA        20.4660   26.4420   10.0880 C.3   289  VAL289      0.1692
    102  C         21.4210   27.5460    9.6920 C.2   289  VAL289      0.2592
    103  O         21.5950   27.8670    8.5160 O.2   289  VAL289     -0.2718
    104  CB        21.2220   25.1830   10.5060 C.3   289  VAL289      0.0266
    105  CG1       20.2220   24.1110   10.9330 C.3   289  VAL289      0.0020
    106  CG2       22.1290   24.6830    9.3940 C.3   289  VAL289      0.0020
    107  N         22.0450   28.1300   10.7080 N.am  290  SER290     -0.1952
    108  CA        22.9900   29.2150   10.6040 C.3   290  SER290      0.1924
    109  C         24.0910   28.9450    9.5910 C.2   290  SER290      0.2314
    110  O         24.5890   29.8700    8.9440 O.2   290  SER290     -0.2863
    111  CB        23.6050   29.5300   11.9770 C.3   290  SER290      0.2116
    112  OG        24.7000   28.6630   12.2230 O.3   290  SER290     -0.2180
    113  N         16.8310   32.6270    9.0730 N.3   329  TYR329     -0.1241
    114  CA        17.4460   33.9260    9.3390 C.3   329  TYR329      0.1605
    115  C         17.2010   34.8730    8.1630 C.2   329  TYR329      0.2264
    116  O         17.5680   36.0430    8.1970 O.2   329  TYR329     -0.2867
    117  CB        18.9650   33.7410    9.5330 C.3   329  TYR329      0.0534
    118  CG        19.2480   32.7920   10.6830 C.ar  329  TYR329     -0.0201
    119  CD1       19.5880   31.4670   10.4510 C.ar  329  TYR329     -0.0009
    120  CD2       19.0340   33.2030   11.9930 C.ar  329  TYR329     -0.0009
    121  CE1       19.6960   30.5650   11.5000 C.ar  329  TYR329      0.0417
    122  CE2       19.2280   32.3290   13.0490 C.ar  329  TYR329      0.0417
    123  CZ        19.5940   31.0260   12.7980 C.ar  329  TYR329      0.1957
    124  OH        19.7720   30.1570   13.8510 O.3   329  TYR329     -0.2866
@<TRIPOS>BOND
     1   115   116    2
     2   115   114    1
     3   103   102    2
     4   110   109    2
     5    91    90    2
     6   113   114    1
     7    90    89    1
     8   100   101    1
     9    88    89    1
    10   114   117    1
    11   106   104    1
    12   117   118    1
    13   109   108    1
    14   102   101    1
    15   102   107   am
    16    89    92    1
    17   101   104    1
    18   119   118   ar
    19   119   121   ar
    20   104   105    1
    21   108   107    1
    22   108   111    1
    23    80    81    1
    24    80    79    1
    25    80    83    1
    26   118   120   ar
    27    81    82    2
    28    92    93    1
    29   121   123   ar
    30    95    93   ar
    31    95    97   ar
    32    83    84    1
    33   111   112    1
    34   120   122   ar
    35    56    57    1
    36    93    94   ar
    37    97    98   ar
    38    84    85    1
    39   123   122   ar
    40   123   124    1
    41    57    58    1
    42    57    60    1
    43    64    62   ar
    44    64    66   ar
    45    67    66    1
    46    62    61   ar
    47    58    59    2
    48    66    65   ar
    49    94    96   ar
    50    98    96   ar
    51    98    99    1
    52    85    86    1
    53    61    60    1
    54    61    63   ar
    55    65    63   ar
    56    49    48    1
    57    49    50    2
    58    47    48    1
    59    86    87    1
    60    48    51    1
    61    68    69    1
    62    72    69    1
    63    72    73    1
    64    51    52    1
    65    69    70    1
    66    52    53    1
    67    73    74   ar
    68    73    75   ar
    69    37    36    1
    70    37    38    2
    71    42    44   ar
    72    42    40   ar
    73    74    76   ar
    74    44    45   ar
    75    36    39    1
    76    36    35    1
    77    70    71    2
    78    53    54    1
    79    39    40    1
    80    40    41   ar
    81    54    55    1
    82    75    77   ar
    83    45    46    1
    84    45    43   ar
    85     9    11   ar
    86     9     7   ar
    87    76    78   ar
    88    11    10   ar
    89    41    43   ar
    90     7     6   ar
    91    77    78   ar
    92    10     8   ar
    93     6     8   ar
    94     6     5    1
    95    33    30    1
    96    33    34    1
    97    18    17   ar
    98    32    31    2
    99    30    31    1
   100    30    29    1
   101     5     2    1
   102    17    16    1
   103    17    19   ar
   104    16    13    1
   105     1     2    1
   106     2     3    1
   107    13    12    1
   108    13    14    1
   109     4     3    2
   110    27    26   ar
   111    28    26   ar
   112    26    25    1
   113    14    15    2
   114    25    24    1
   115    24    21    1
   116    20    21    1
   117    21    22    1
   118    22    23    2
