@<TRIPOS>MOLECULE
tmp/1h7tB01.pdb
 92 86 0 0 0
SMALL
GASTEIGER

@<TRIPOS>ATOM
      1  N         41.1750   41.3360   57.3490 N.3    13  SER13      -0.1217
      2  CA        39.8080   41.8320   57.5360 C.3    13  SER13       0.1889
      3  C         39.0900   40.9260   58.5400 C.2    13  SER13       0.2288
      4  O         39.1240   39.7040   58.4100 O.2    13  SER13      -0.2866
      5  CB        39.0380   41.8510   56.2170 C.3    13  SER13       0.2089
      6  OG        37.7380   42.3830   56.4150 O.3    13  SER13      -0.2183
      7  N         40.6220   39.7440   51.6920 N.3    19  LYS19      -0.1245
      8  CA        39.6410   40.4920   50.8980 C.3    19  LYS19       0.1561
      9  C         40.0440   40.9640   49.4940 C.2    19  LYS19       0.2260
     10  O         39.2520   40.8390   48.5550 O.2    19  LYS19      -0.2867
     11  CB        39.0910   41.6720   51.7180 C.3    19  LYS19       0.0271
     12  CG        37.8600   42.3350   51.1170 C.3    19  LYS19       0.0035
     13  CD        37.1780   43.2870   52.0940 C.3    19  LYS19       0.0206
     14  CE        38.0720   44.4370   52.4900 C.3    19  LYS19       0.1093
     15  NZ        37.3900   45.3030   53.4900 N.3    19  LYS19      -0.1314
     16  N         40.1660   53.3120   47.5420 N.3    96  GLN96      -0.1245
     17  CA        39.9850   52.1850   48.4470 C.3    96  GLN96       0.1566
     18  C         40.0140   50.8500   47.6990 C.2    96  GLN96       0.2260
     19  O         39.3050   50.6720   46.7110 O.2    96  GLN96      -0.2867
     20  CB        38.6980   52.3550   49.2510 C.3    96  GLN96       0.0367
     21  CG        38.6630   53.6450   50.0590 C.3    96  GLN96       0.0905
     22  CD        39.9800   53.9710   50.7570 C.2    96  GLN96       0.2608
     23  OE1       40.5600   53.1380   51.4500 O.2    96  GLN96      -0.2717
     24  NE2       40.4590   55.1990   50.5640 N.am   96  GLN96      -0.0878
     25  N         38.6830   48.1620   48.1610 N.3    98  ASP98      -0.1225
     26  CA        37.4620   47.3770   48.2210 C.3    98  ASP98       0.1805
     27  C         36.2560   48.0050   47.5530 C.2    98  ASP98       0.2597
     28  O         35.1130   47.6740   47.8660 O.2    98  ASP98      -0.2718
     29  CB        37.1400   46.9470   49.6550 C.3    98  ASP98       0.1424
     30  CG        37.2100   48.0820   50.6540 C.2    98  ASP98       0.3668
     31  OD1       37.6480   49.2000   50.3190 O.co2  98  ASP98      -0.2456
     32  OD2       36.8330   47.8390   51.8100 O.co2  98  ASP98      -0.2456
     33  N         36.5210   48.8990   46.6130 N.am   99  GLU99      -0.1979
     34  CA        35.4580   49.5370   45.8540 C.3    99  GLU99       0.1602
     35  C         35.7530   49.2800   44.3850 C.2    99  GLU99       0.2287
     36  O         36.3020   50.1380   43.6950 O.2    99  GLU99      -0.2864
     37  CB        35.4040   51.0320   46.1420 C.3    99  GLU99       0.0415
     38  CG        34.6010   51.3740   47.3690 C.3    99  GLU99       0.1163
     39  CD        34.2890   52.8500   47.4600 C.2    99  GLU99       0.3649
     40  OE1       33.7230   53.4000   46.4890 O.co2  99  GLU99      -0.2457
     41  OE2       34.5980   53.4590   48.5030 O.co2  99  GLU99      -0.2457
     42  N         26.3060   62.3560   51.4020 N.3   171  LYS171     -0.1245
     43  CA        27.0950   61.2610   51.9400 C.3   171  LYS171      0.1561
     44  C         28.5210   61.4350   51.4430 C.2   171  LYS171      0.2260
     45  O         28.7540   61.7320   50.2760 O.2   171  LYS171     -0.2867
     46  CB        26.5440   59.9000   51.4850 C.3   171  LYS171      0.0271
     47  CG        27.4800   58.7360   51.7680 C.3   171  LYS171      0.0035
     48  CD        26.9020   57.4040   51.3430 C.3   171  LYS171      0.0206
     49  CE        27.9550   56.3140   51.4730 C.3   171  LYS171      0.1093
     50  NZ        27.3770   54.9530   51.3260 N.3   171  LYS171     -0.1314
     51  N         34.6170   58.1260   50.5600 N.3   174  GLY174     -0.1210
     52  CA        36.0120   58.0680   50.9810 C.3   174  GLY174      0.1956
     53  C         37.1830   58.0360   50.0110 C.2   174  GLY174      0.2611
     54  O         38.1090   57.2430   50.1930 O.2   174  GLY174     -0.2717
     55  N         37.1680   58.8850   48.9890 N.am  175  ILE175     -0.1979
     56  CA        38.2840   58.9620   48.0470 C.3   175  ILE175      0.1595
     57  C         38.9090   60.3330   48.2780 C.2   175  ILE175      0.2287
     58  O         38.1960   61.3310   48.3500 O.2   175  ILE175     -0.2864
     59  CB        37.8220   58.8470   46.5780 C.3   175  ILE175      0.0276
     60  CG1       37.1850   57.4800   46.3380 C.3   175  ILE175      0.0022
     61  CG2       39.0100   59.0260   45.6290 C.3   175  ILE175      0.0022
     62  CD1       36.6210   57.3150   44.9520 C.3   175  ILE175      0.0001
     63  N         28.5910   53.1200   43.8110 N.3   221  GLY221     -0.1210
     64  CA        28.2990   51.7250   44.0810 C.3   221  GLY221      0.1940
     65  C         28.8010   51.2830   45.4470 C.2   221  GLY221      0.2454
     66  O         29.7000   51.9100   46.0160 O.2   221  GLY221     -0.2732
     67  N         28.2490   50.1840   45.9900 N.am  222  PRO222     -0.2717
     68  CA        28.6380   49.6520   47.3020 C.3   222  PRO222      0.1536
     69  C         30.0530   49.0830   47.3670 C.2   222  PRO222      0.2599
     70  O         30.6030   48.6140   46.3680 O.2   222  PRO222     -0.2715
     71  CB        27.5970   48.5590   47.5380 C.3   222  PRO222      0.0310
     72  CG        27.3240   48.0550   46.1500 C.3   222  PRO222      0.0237
     73  CD        27.2040   49.3450   45.3720 C.3   222  PRO222      0.0939
     74  N         30.6450   49.1520   48.5560 N.am  223  GLY223     -0.1941
     75  CA        31.9740   48.6100   48.7610 C.3   223  GLY223      0.2014
     76  C         31.8660   47.2010   49.3150 C.2   223  GLY223      0.2639
     77  O         30.7680   46.7330   49.6250 O.2   223  GLY223     -0.2714
     78  N         33.0000   46.5190   49.4460 N.am  224  VAL224     -0.1963
     79  CA        33.0150   45.1510   49.9540 C.3   224  VAL224      0.1727
     80  C         33.6750   45.0590   51.3260 C.2   224  VAL224      0.2616
     81  O         34.9010   45.0860   51.4480 O.2   224  VAL224     -0.2715
     82  CB        33.7250   44.1950   48.9650 C.3   224  VAL224      0.0290
     83  CG1       33.7730   42.7900   49.5300 C.3   224  VAL224      0.0023
     84  CG2       33.0080   44.2020   47.6220 C.3   224  VAL224      0.0023
     85  N         32.8410   44.9510   52.3560 N.am  225  ASP225     -0.1971
     86  CA        33.3030   44.8480   53.7420 C.3   225  ASP225      0.1709
     87  C         32.7270   43.6070   54.4160 C.2   225  ASP225      0.2293
     88  O         33.3940   42.9660   55.2320 O.2   225  ASP225     -0.2864
     89  CB        32.9220   46.1060   54.5290 C.3   225  ASP225      0.1436
     90  CG        31.7380   46.8420   53.9220 C.2   225  ASP225      0.3671
     91  OD1       30.6380   46.2480   53.8250 O.co2 225  ASP225     -0.2456
     92  OD2       31.9150   48.0160   53.5270 O.co2 225  ASP225     -0.2456
@<TRIPOS>BOND
     1    36    35    2
     2    63    64    1
     3    64    65    1
     4    35    34    1
     5    62    60    1
     6    73    67    1
     7    73    72    1
     8    65    67   am
     9    65    66    2
    10    61    59    1
    11    34    37    1
    12    34    33    1
    13    67    68    1
    14    37    38    1
    15    72    71    1
    16    60    59    1
    17    70    69    2
    18    40    39   ar
    19    59    56    1
    20    33    27   am
    21    19    18    2
    22    68    69    1
    23    68    71    1
    24    69    74   am
    25    38    39    1
    26    39    41   ar
    27    16    17    1
    28    27    28    2
    29    27    26    1
    30    84    82    1
    31    18    17    1
    32    56    57    1
    33    56    55    1
    34    25    26    1
    35    26    29    1
    36    57    58    2
    37    17    20    1
    38    10     9    2
    39    74    75    1
    40    75    76    1
    41    82    83    1
    42    82    79    1
    43    55    53   am
    44    20    21    1
    45    76    78   am
    46    76    77    2
    47    78    79    1
    48     9     8    1
    49    29    30    1
    50    79    80    1
    51    53    54    2
    52    53    52    1
    53    21    22    1
    54    45    44    2
    55    31    30   ar
    56    51    52    1
    57    24    22   am
    58    30    32   ar
    59    22    23    2
    60     8     7    1
    61     8    11    1
    62    12    11    1
    63    12    13    1
    64    80    81    2
    65    80    85   am
    66    50    49    1
    67    48    49    1
    68    48    47    1
    69    42    43    1
    70    44    43    1
    71    46    47    1
    72    46    43    1
    73    13    14    1
    74    85    86    1
    75    14    15    1
    76    92    90   ar
    77    86    87    1
    78    86    89    1
    79    91    90   ar
    80    90    89    1
    81    87    88    2
    82     5     6    1
    83     5     2    1
    84     1     2    1
    85     2     3    1
    86     4     3    2
