@<TRIPOS>MOLECULE
tmp/1h7uA00.pdb
 148 136 0 0 0
SMALL
GASTEIGER

@<TRIPOS>ATOM
      1  N         32.2410   67.9650   42.2730 N.3     1  VAL1       -0.1245
      2  CA        33.7070   67.9930   41.9550 C.3     1  VAL1        0.1561
      3  C         34.0560   68.6070   40.5850 C.2     1  VAL1        0.2260
      4  O         34.4040   67.9210   39.6210 O.2     1  VAL1       -0.2867
      5  CB        34.3380   66.5810   42.0600 C.3     1  VAL1        0.0252
      6  CG1       34.3040   66.1120   43.5010 C.3     1  VAL1        0.0019
      7  CG2       33.6140   65.6110   41.1640 C.3     1  VAL1        0.0019
      8  N         37.1080   64.3080   35.1370 N.3    11  GLU11      -0.1245
      9  CA        35.7450   63.8270   35.2830 C.3    11  GLU11       0.1567
     10  C         35.1540   63.4430   33.9280 C.2    11  GLU11       0.2260
     11  O         34.5090   62.3970   33.7820 O.2    11  GLU11      -0.2867
     12  CB        34.9050   64.9140   35.9410 C.3    11  GLU11       0.0388
     13  CG        35.1150   65.0140   37.4310 C.3    11  GLU11       0.1160
     14  CD        34.4210   63.8890   38.1510 C.2    11  GLU11       0.3649
     15  OE1       33.3580   63.4650   37.6500 O.co2  11  GLU11      -0.2457
     16  OE2       34.9110   63.4350   39.2050 O.co2  11  GLU11      -0.2457
     17  N         37.0350   60.4410   32.4300 N.3    14  GLU14      -0.1231
     18  CA        36.6200   59.2220   33.0820 C.3    14  GLU14       0.1699
     19  C         35.2600   58.7870   32.5590 C.2    14  GLU14       0.2592
     20  O         35.0140   57.5860   32.3880 O.2    14  GLU14      -0.2718
     21  CB        36.6200   59.3960   34.5950 C.3    14  GLU14       0.0402
     22  CG        37.8100   58.7310   35.2210 C.3    14  GLU14       0.1161
     23  CD        37.9910   59.1250   36.6490 C.2    14  GLU14       0.3649
     24  OE1       37.2640   60.0390   37.0930 O.co2  14  GLU14      -0.2457
     25  OE2       38.8600   58.5290   37.3300 O.co2  14  GLU14      -0.2457
     26  N         34.3870   59.7550   32.2790 N.am   15  ASN15      -0.1960
     27  CA        33.0770   59.4180   31.7390 C.3    15  ASN15       0.1819
     28  C         33.2400   58.6750   30.4240 C.2    15  ASN15       0.2622
     29  O         32.5530   57.6900   30.1600 O.2    15  ASN15      -0.2715
     30  CB        32.2390   60.6560   31.4950 C.3    15  ASN15       0.1195
     31  CG        31.4170   61.0350   32.6940 C.2    15  ASN15       0.2630
     32  OD1       31.1310   60.2050   33.5570 O.2    15  ASN15      -0.2716
     33  ND2       31.0110   62.2920   32.7550 N.am   15  ASN15      -0.0877
     34  N         34.1560   59.1520   29.5940 N.am   16  SER16      -0.1950
     35  CA        34.3960   58.5130   28.3160 C.3    16  SER16       0.1924
     36  C         34.9430   57.1000   28.4960 C.2    16  SER16       0.2314
     37  O         34.4850   56.1660   27.8300 O.2    16  SER16      -0.2863
     38  CB        35.3560   59.3590   27.4890 C.3    16  SER16       0.2116
     39  OG        34.7400   60.5970   27.2100 O.3    16  SER16      -0.2180
     40  N         34.5820   55.0620   31.0470 N.3    18  ASP18      -0.1225
     41  CA        33.5020   54.2380   31.5750 C.3    18  ASP18       0.1805
     42  C         32.4910   53.8910   30.5050 C.2    18  ASP18       0.2597
     43  O         31.7850   52.8880   30.6110 O.2    18  ASP18      -0.2718
     44  CB        32.7680   54.9460   32.7150 C.3    18  ASP18       0.1424
     45  CG        33.5910   55.0310   33.9710 C.2    18  ASP18       0.3668
     46  OD1       34.5590   54.2550   34.1090 O.co2  18  ASP18      -0.2456
     47  OD2       33.2590   55.8740   34.8300 O.co2  18  ASP18      -0.2456
     48  N         32.4060   54.7330   29.4860 N.am   19  ALA19      -0.1979
     49  CA        31.4700   54.5150   28.3990 C.3    19  ALA19       0.1597
     50  C         32.0580   53.5220   27.3860 C.2    19  ALA19       0.2287
     51  O         31.4240   53.2020   26.3730 O.2    19  ALA19      -0.2864
     52  CB        31.1480   55.8430   27.7280 C.3    19  ALA19       0.0319
     53  N         33.9950   61.3550   22.2680 N.3    40  ASP40      -0.1239
     54  CA        34.3420   59.9370   22.3530 C.3    40  ASP40       0.1674
     55  C         33.4370   59.0120   21.5450 C.2    40  ASP40       0.2266
     56  O         32.3090   59.3740   21.1850 O.2    40  ASP40      -0.2867
     57  CB        34.3240   59.4690   23.8060 C.3    40  ASP40       0.1410
     58  CG        32.9130   59.3820   24.3820 C.2    40  ASP40       0.3668
     59  OD1       32.0820   58.6150   23.8390 O.co2  40  ASP40      -0.2456
     60  OD2       32.6330   60.0770   25.3870 O.co2  40  ASP40      -0.2456
     61  N         29.7210   54.1770   24.3160 N.3    43  CYS43      -0.1221
     62  CA        28.3540   53.6850   24.1180 C.3    43  CYS43       0.1808
     63  C         27.2670   54.7240   23.9060 C.2    43  CYS43       0.2602
     64  O         26.1730   54.3900   23.4530 O.2    43  CYS43      -0.2717
     65  CB        27.9280   52.8290   25.3030 C.3    43  CYS43       0.0970
     66  SG        27.6240   53.8170   26.7640 S.3    43  CYS43      -0.0800
     67  N         27.5350   55.9690   24.2620 N.am   44  GLY44      -0.1942
     68  CA        26.5300   56.9940   24.0720 C.3    44  GLY44       0.2014
     69  C         25.3730   56.8860   25.0460 C.2    44  GLY44       0.2638
     70  O         25.3900   56.0760   25.9770 O.2    44  GLY44      -0.2714
     71  N         24.3490   57.7010   24.8180 N.am   45  VAL45      -0.1977
     72  CA        23.1950   57.7270   25.6960 C.3    45  VAL45       0.1596
     73  C         21.8740   57.4170   25.0370 C.2    45  VAL45       0.2287
     74  O         21.5810   57.8320   23.9130 O.2    45  VAL45      -0.2864
     75  CB        23.0690   59.0810   26.3820 C.3    45  VAL45       0.0276
     76  CG1       21.9520   59.0550   27.3940 C.3    45  VAL45       0.0022
     77  CG2       24.3700   59.4240   27.0460 C.3    45  VAL45       0.0022
     78  N         17.2870   58.0720   29.3720 N.3    49  ASN49      -0.1240
     79  CA        18.1370   58.7270   30.3600 C.3    49  ASN49       0.1653
     80  C         18.6000   60.1560   30.0750 C.2    49  ASN49       0.2266
     81  O         19.4530   60.6790   30.7890 O.2    49  ASN49      -0.2867
     82  CB        19.3510   57.8460   30.6400 C.3    49  ASN49       0.1155
     83  CG        18.9590   56.4410   31.0360 C.2    49  ASN49       0.2627
     84  OD1       18.2310   56.2340   32.0090 O.2    49  ASN49      -0.2716
     85  ND2       19.4350   55.4670   30.2800 N.am   49  ASN49      -0.0877
     86  N         20.6210   62.7790   32.9220 N.3    53  LEU53      -0.1245
     87  CA        22.0500   63.0330   32.7740 C.3    53  LEU53       0.1561
     88  C         22.5710   63.9920   33.8420 C.2    53  LEU53       0.2260
     89  O         23.6490   63.7650   34.3900 O.2    53  LEU53      -0.2867
     90  CB        22.3570   63.5830   31.3800 C.3    53  LEU53       0.0270
     91  CG        22.4880   62.5720   30.2430 C.3    53  LEU53       0.0019
     92  CD1       22.6070   63.2850   28.9020 C.3    53  LEU53       0.0001
     93  CD2       23.7070   61.7100   30.4890 C.3    53  LEU53       0.0001
     94  N         21.0070   62.5070   40.0580 N.3    56  LYS56      -0.1245
     95  CA        21.2800   61.1810   40.7560 C.3    56  LYS56       0.1561
     96  C         22.5760   60.7320   41.4600 C.2    56  LYS56       0.2260
     97  O         22.6130   59.5790   41.9960 O.2    56  LYS56      -0.2867
     98  CB        20.8930   60.0190   39.8320 C.3    56  LYS56       0.0271
     99  CG        21.9970   59.6020   38.8760 C.3    56  LYS56       0.0035
    100  CD        21.4540   59.0050   37.5970 C.3    56  LYS56       0.0206
    101  CE        22.5170   58.9790   36.5090 C.3    56  LYS56       0.1093
    102  NZ        23.1970   60.3000   36.3570 N.3    56  LYS56      -0.1314
    103  N         30.9370   62.2310   43.3070 N.3    57  GLY57      -0.1210
    104  CA        29.5350   61.9950   43.0160 C.3    57  GLY57       0.1956
    105  C         28.7420   63.0790   42.2940 C.2    57  GLY57       0.2612
    106  O         28.5210   64.1740   42.8280 O.2    57  GLY57      -0.2717
    107  N         28.3230   62.7100   41.0810 N.am   58  GLU58      -0.1965
    108  CA        27.5150   63.4640   40.1260 C.3    58  GLU58       0.1733
    109  C         27.8570   64.9370   39.8310 C.2    58  GLU58       0.2616
    110  O         27.2010   65.9060   40.2340 O.2    58  GLU58      -0.2715
    111  CB        26.0620   63.1940   40.4930 C.3    58  GLU58       0.0429
    112  CG        25.8780   61.6820   40.8590 C.3    58  GLU58       0.1163
    113  CD        25.4910   60.7610   39.6820 C.2    58  GLU58       0.3649
    114  OE1       25.0580   61.2730   38.6240 O.co2  58  GLU58      -0.2457
    115  OE2       25.5880   59.5130   39.8270 O.co2  58  GLU58      -0.2457
    116  N         28.9130   65.0150   39.0310 N.am   59  ALA59      -0.1963
    117  CA        29.5530   66.2200   38.5500 C.3    59  ALA59       0.1728
    118  C         29.0790   66.6640   37.1660 C.2    59  ALA59       0.2616
    119  O         29.4940   67.7060   36.6610 O.2    59  ALA59      -0.2715
    120  CB        31.0530   65.9910   38.5310 C.3    59  ALA59       0.0334
    121  N         28.2270   65.8850   36.5230 N.am   60  LEU60      -0.1963
    122  CA        27.7520   66.3310   35.2230 C.3    60  LEU60       0.1728
    123  C         26.7590   67.4600   35.4700 C.2    60  LEU60       0.2616
    124  O         26.6850   68.4240   34.7000 O.2    60  LEU60      -0.2715
    125  CB        27.0750   65.1980   34.4460 C.3    60  LEU60       0.0311
    126  CG        27.6840   64.9500   33.0560 C.3    60  LEU60       0.0022
    127  CD1       26.6890   64.2360   32.1640 C.3    60  LEU60       0.0001
    128  CD2       28.0690   66.2660   32.4180 C.3    60  LEU60       0.0001
    129  N         26.0040   67.3370   36.5610 N.am   61  SER61      -0.1950
    130  CA        25.0260   68.3520   36.9310 C.3    61  SER61       0.1924
    131  C         25.7640   69.6100   37.3540 C.2    61  SER61       0.2314
    132  O         25.3350   70.7230   37.0620 O.2    61  SER61      -0.2863
    133  CB        24.1600   67.8560   38.0840 C.3    61  SER61       0.2116
    134  OG        24.9760   67.2950   39.0910 O.3    61  SER61      -0.2180
    135  N         29.5380   60.0430   22.4250 N.3   104  THR104     -0.1218
    136  CA        29.0200   61.2440   23.0480 C.3   104  THR104      0.1862
    137  C         30.0200   62.3540   22.9110 C.2   104  THR104      0.2287
    138  O         31.2200   62.1000   22.8810 O.2   104  THR104     -0.2866
    139  CB        28.7910   61.0260   24.5480 C.3   104  THR104      0.1770
    140  OG1       27.9500   59.8810   24.7500 O.3   104  THR104     -0.2211
    141  CG2       28.1480   62.2630   25.1690 C.3   104  THR104      0.0375
    142  N         30.7000   66.0290   24.7640 N.3   106  VAL106     -0.1245
    143  CA        30.3190   66.9860   25.7890 C.3   106  VAL106      0.1561
    144  C         31.0820   68.2870   25.6160 C.2   106  VAL106      0.2260
    145  O         32.3090   68.2870   25.5710 O.2   106  VAL106     -0.2867
    146  CB        30.6150   66.4220   27.1840 C.3   106  VAL106      0.0252
    147  CG1       30.0940   67.3720   28.2660 C.3   106  VAL106      0.0019
    148  CG2       29.9710   65.0680   27.3170 C.3   106  VAL106      0.0019
@<TRIPOS>BOND
     1    56    55    2
     2    55    54    1
     3    53    54    1
     4    54    57    1
     5   135   136    1
     6   138   137    2
     7   137   136    1
     8   136   139    1
     9    64    63    2
    10    57    58    1
    11    59    58   ar
    12    63    62    1
    13    63    67   am
    14    74    73    2
    15    68    67    1
    16    68    69    1
    17    62    61    1
    18    62    65    1
    19    58    60   ar
    20   139   140    1
    21   139   141    1
    22   142   143    1
    23    71    69   am
    24    71    72    1
    25    73    72    1
    26    69    70    2
    27    65    66    1
    28   145   144    2
    29   144   143    1
    30    72    75    1
    31   143   146    1
    32    51    50    2
    33    75    77    1
    34    75    76    1
    35   146   148    1
    36   146   147    1
    37    39    38    1
    38    50    49    1
    39    38    35    1
    40    52    49    1
    41    37    36    2
    42    35    36    1
    43    35    34    1
    44    49    48    1
    45    92    91    1
    46    78    79    1
    47    48    42   am
    48    34    28   am
    49    80    79    1
    50    80    81    2
    51    29    28    2
    52    91    93    1
    53    91    90    1
    54    85    83   am
    55    79    82    1
    56    28    27    1
    57    42    43    2
    58    42    41    1
    59    82    83    1
    60    83    84    2
    61    40    41    1
    62    90    87    1
    63    30    27    1
    64    30    31    1
    65    41    44    1
    66    27    26    1
    67   127   126    1
    68    26    19   am
    69    20    19    2
    70   128   126    1
    71    17    18    1
    72    19    18    1
    73    31    33   am
    74    31    32    2
    75    44    45    1
    76    87    86    1
    77    87    88    1
    78   126   125    1
    79    18    21    1
    80    11    10    2
    81    88    89    2
    82    10     9    1
    83    45    46   ar
    84    45    47   ar
    85   125   122    1
    86    21    22    1
    87   124   123    2
    88     8     9    1
    89    22    23    1
    90   122   123    1
    91   122   121    1
    92     9    12    1
    93   123   129   am
    94    12    13    1
    95   102   101    1
    96   101   100    1
    97   121   118   am
    98   129   130    1
    99    23    24   ar
   100    23    25   ar
   101   119   118    2
   102   130   131    1
   103   130   133    1
   104   132   131    2
   105   118   117    1
   106    13    14    1
   107   100    99    1
   108    15    14   ar
   109   133   134    1
   110    14    16   ar
   111   120   117    1
   112   117   116    1
   113   114   113   ar
   114    99    98    1
   115   116   109   am
   116     4     3    2
   117   113   115   ar
   118   113   112    1
   119   109   108    1
   120   109   110    2
   121    98    95    1
   122    94    95    1
   123   108   111    1
   124   108   107    1
   125   111   112    1
   126     3     2    1
   127    95    96    1
   128   107   105   am
   129     7     5    1
   130    96    97    2
   131     2     5    1
   132     2     1    1
   133     5     6    1
   134   105   106    2
   135   105   104    1
   136   104   103    1
