@<TRIPOS>MOLECULE
tmp/1h82B01.pdb
 211 209 0 0 0
SMALL
GASTEIGER

@<TRIPOS>ATOM
      1  N        136.7000   82.4710   31.6290 N.3    56  TRP56      -0.1241
      2  CA       138.0450   83.0460   31.6590 C.3    56  TRP56       0.1605
      3  C        138.0720   84.5010   31.2590 C.2    56  TRP56       0.2264
      4  O        137.2030   84.9530   30.5090 O.2    56  TRP56      -0.2867
      5  CB       138.9590   82.3410   30.6310 C.3    56  TRP56       0.0550
      6  CG       139.5490   81.0250   30.9820 C.ar   56  TRP56       0.0003
      7  CD1      140.7690   80.8220   31.5350 C.ar   56  TRP56       0.0946
      8  CD2      138.9810   79.7280   30.8020 C.ar   56  TRP56       0.0152
      9  NE1      141.0230   79.4690   31.6930 N.ar   56  TRP56      -0.2442
     10  CE2      139.9380   78.7720   31.2430 C.ar   56  TRP56       0.0810
     11  CE3      137.7790   79.2680   30.2620 C.ar   56  TRP56       0.0012
     12  CZ2      139.7230   77.3800   31.1880 C.ar   56  TRP56       0.0191
     13  CZ3      137.5720   77.8620   30.1860 C.ar   56  TRP56       0.0001
     14  CH2      138.5480   76.9400   30.6440 C.ar   56  TRP56       0.0015
     15  N        140.3320   86.2700   28.9860 N.3    58  GLU58      -0.1245
     16  CA       141.3240   85.8610   27.9900 C.3    58  GLU58       0.1567
     17  C        142.0600   87.0480   27.3930 C.2    58  GLU58       0.2260
     18  O        141.4310   87.9970   26.9160 O.2    58  GLU58      -0.2867
     19  CB       140.7010   85.0150   26.8550 C.3    58  GLU58       0.0388
     20  CG       139.9610   83.7670   27.3800 C.3    58  GLU58       0.1160
     21  CD       139.8140   82.6590   26.3350 C.2    58  GLU58       0.3649
     22  OE1      140.7300   82.4800   25.5030 O.co2  58  GLU58      -0.2457
     23  OE2      138.7770   81.9670   26.2770 O.co2  58  GLU58      -0.2457
     24  N        149.3520   75.8790   30.5410 N.3    85  PHE85      -0.1241
     25  CA       149.2990   74.7370   29.6520 C.3    85  PHE85       0.1605
     26  C        150.6500   74.1300   29.3210 C.2    85  PHE85       0.2264
     27  O        150.7520   73.2260   28.4890 O.2    85  PHE85      -0.2867
     28  CB       148.5540   75.1570   28.3890 C.3    85  PHE85       0.0534
     29  CG       147.1520   75.6750   28.6610 C.ar   85  PHE85      -0.0203
     30  CD1      146.9010   77.0430   28.8050 C.ar   85  PHE85      -0.0042
     31  CD2      146.0810   74.7940   28.7890 C.ar   85  PHE85      -0.0042
     32  CE1      145.6090   77.5320   29.0650 C.ar   85  PHE85      -0.0003
     33  CE2      144.7860   75.2660   29.0630 C.ar   85  PHE85      -0.0003
     34  CZ       144.5480   76.6280   29.1610 C.ar   85  PHE85      -0.0000
     35  N        151.0700   76.3370   12.8230 N.3   116  GLU116     -0.1245
     36  CA       150.2610   77.5080   13.1040 C.3   116  GLU116      0.1567
     37  C        151.0000   78.8340   12.8810 C.2   116  GLU116      0.2260
     38  O        150.4460   79.7880   12.3290 O.2   116  GLU116     -0.2867
     39  CB       149.6650   77.4420   14.5090 C.3   116  GLU116      0.0388
     40  CG       148.8000   78.6810   14.7850 C.3   116  GLU116      0.1160
     41  CD       148.0690   78.6100   16.1100 C.2   116  GLU116      0.3649
     42  OE1      148.2140   77.6210   16.8500 O.co2 116  GLU116     -0.2457
     43  OE2      147.3240   79.5480   16.4300 O.co2 116  GLU116     -0.2457
     44  N        142.4510   70.5900   20.8440 N.3   161  TYR161     -0.1241
     45  CA       142.8130   71.4100   21.9770 C.3   161  TYR161      0.1605
     46  C        143.2580   72.7710   21.4810 C.2   161  TYR161      0.2264
     47  O        142.9590   73.8180   22.0780 O.2   161  TYR161     -0.2867
     48  CB       143.9990   70.7500   22.6760 C.3   161  TYR161      0.0534
     49  CG       144.7370   71.7880   23.4250 C.ar  161  TYR161     -0.0201
     50  CD1      144.1940   72.3310   24.5690 C.ar  161  TYR161     -0.0009
     51  CD2      145.9330   72.2920   22.9460 C.ar  161  TYR161     -0.0009
     52  CE1      144.8230   73.3490   25.2500 C.ar  161  TYR161      0.0417
     53  CE2      146.5730   73.3230   23.6250 C.ar  161  TYR161      0.0417
     54  CZ       146.0060   73.8580   24.7700 C.ar  161  TYR161      0.1957
     55  OH       146.6010   74.8990   25.4460 O.3   161  TYR161     -0.2866
     56  N        138.7980   73.8560   21.0000 N.3   165  TYR165     -0.1227
     57  CA       138.6790   74.2420   22.4210 C.3   165  TYR165      0.1736
     58  C        138.5870   75.7640   22.6110 C.2   165  TYR165      0.2595
     59  O        138.1060   76.2930   23.6270 O.2   165  TYR165     -0.2718
     60  CB       139.8090   73.5840   23.2140 C.3   165  TYR165      0.0548
     61  CG       139.8700   73.7950   24.7210 C.ar  165  TYR165     -0.0200
     62  CD1      138.7840   73.5250   25.5380 C.ar  165  TYR165     -0.0009
     63  CD2      141.0740   74.1560   25.3390 C.ar  165  TYR165     -0.0009
     64  CE1      138.8800   73.6230   26.9410 C.ar  165  TYR165      0.0417
     65  CE2      141.1740   74.2830   26.7290 C.ar  165  TYR165      0.0417
     66  CZ       140.0770   74.0020   27.5210 C.ar  165  TYR165      0.1957
     67  OH       140.2060   74.0930   28.8920 O.3   165  TYR165     -0.2866
     68  N        138.9870   76.4980   21.5780 N.am  166  GLU166     -0.1965
     69  CA       138.8820   77.9390   21.6380 C.3   166  GLU166      0.1733
     70  C        137.6780   78.4210   20.8270 C.2   166  GLU166      0.2616
     71  O        136.9620   79.3150   21.2560 O.2   166  GLU166     -0.2715
     72  CB       140.1230   78.5890   20.9860 C.3   166  GLU166      0.0429
     73  CG       140.1500   80.0990   21.2000 C.3   166  GLU166      0.1163
     74  CD       140.2630   80.4610   22.6910 C.2   166  GLU166      0.3649
     75  OE1      140.0810   81.6170   23.0940 O.co2 166  GLU166     -0.2457
     76  OE2      140.5110   79.5820   23.5280 O.co2 166  GLU166     -0.2457
     77  N        137.4990   77.8850   19.6240 N.am  167  PHE167     -0.1974
     78  CA       136.4710   78.3740   18.6840 C.3   167  PHE167      0.1639
     79  C        135.1650   77.6110   18.6200 C.2   167  PHE167      0.2290
     80  O        134.1930   78.0780   18.0290 O.2   167  PHE167     -0.2864
     81  CB       137.0490   78.3850   17.2500 C.3   167  PHE167      0.0560
     82  CG       138.3390   79.1310   17.1680 C.ar  167  PHE167     -0.0200
     83  CD1      139.4870   78.5400   16.6530 C.ar  167  PHE167     -0.0042
     84  CD2      138.4180   80.3990   17.7270 C.ar  167  PHE167     -0.0042
     85  CE1      140.6810   79.2690   16.5820 C.ar  167  PHE167     -0.0003
     86  CE2      139.6140   81.1450   17.6670 C.ar  167  PHE167     -0.0003
     87  CZ       140.7450   80.5790   17.0890 C.ar  167  PHE167     -0.0000
     88  N        140.7610   85.3280    9.8060 N.3   178  ASN178     -0.1225
     89  CA       140.1850   85.9120   11.0000 C.3   178  ASN178      0.1785
     90  C        140.4620   85.2760   12.3300 C.2   178  ASN178      0.2597
     91  O        139.9290   85.7000   13.3430 O.2   178  ASN178     -0.2718
     92  CB       138.6910   86.1680   10.8050 C.3   178  ASN178      0.1169
     93  CG       138.4370   87.1260    9.6710 C.2   178  ASN178      0.2627
     94  OD1      138.5710   88.3330    9.8610 O.2   178  ASN178     -0.2716
     95  ND2      138.2150   86.6090    8.4570 N.am  178  ASN178     -0.0877
     96  N        141.2830   84.2480   12.3680 N.am  179  THR179     -0.1953
     97  CA       141.5050   83.6440   13.6790 C.3   179  THR179      0.1897
     98  C        142.9630   83.3480   13.9280 C.2   179  THR179      0.2313
     99  O        143.3400   83.0060   15.0360 O.2   179  THR179     -0.2863
    100  CB       140.7550   82.2810   13.7800 C.3   179  THR179      0.1794
    101  OG1      141.1540   81.5170   12.6430 O.3   179  THR179     -0.2208
    102  CG2      139.2710   82.5280   13.6260 C.3   179  THR179      0.0378
    103  N        144.9880   85.5900   16.5530 N.3   182  LEU182     -0.1245
    104  CA       143.8230   86.1860   17.1800 C.3   182  LEU182      0.1561
    105  C        144.2120   87.5000   17.8740 C.2   182  LEU182      0.2260
    106  O        145.1390   87.5490   18.7100 O.2   182  LEU182     -0.2867
    107  CB       143.3950   85.1380   18.1840 C.3   182  LEU182      0.0270
    108  CG       141.9420   84.8030   18.3560 C.3   182  LEU182      0.0019
    109  CD1      141.2440   84.7250   16.9980 C.3   182  LEU182      0.0001
    110  CD2      142.0600   83.4320   19.0050 C.3   182  LEU182      0.0001
    111  N        144.7570   87.9200   21.7130 N.3   185  PHE185     -0.1241
    112  CA       146.0680   87.5550   22.2160 C.3   185  PHE185      0.1605
    113  C        147.1700   88.5030   21.7740 C.2   185  PHE185      0.2264
    114  O        148.0210   88.8850   22.5880 O.2   185  PHE185     -0.2867
    115  CB       146.3950   86.0770   22.0290 C.3   185  PHE185      0.0534
    116  CG       145.4140   85.1810   22.6980 C.ar  185  PHE185     -0.0203
    117  CD1      144.3720   84.6240   21.9830 C.ar  185  PHE185     -0.0042
    118  CD2      145.4710   84.9680   24.0720 C.ar  185  PHE185     -0.0042
    119  CE1      143.4120   83.8260   22.6360 C.ar  185  PHE185     -0.0003
    120  CE2      144.4850   84.2150   24.7250 C.ar  185  PHE185     -0.0003
    121  CZ       143.4700   83.5840   24.0140 C.ar  185  PHE185     -0.0000
    122  N        149.1100   86.8670   26.0180 N.3   190  ASP190     -0.1239
    123  CA       148.9590   85.4340   25.8560 C.3   190  ASP190      0.1674
    124  C        148.2970   84.7500   27.0330 C.2   190  ASP190      0.2266
    125  O        147.8960   83.6030   26.9520 O.2   190  ASP190     -0.2867
    126  CB       150.3350   84.8060   25.6780 C.3   190  ASP190      0.1410
    127  CG       150.9750   85.1630   24.3460 C.2   190  ASP190      0.3668
    128  OD1      150.2310   85.5420   23.4150 O.co2 190  ASP190     -0.2456
    129  OD2      152.2120   85.0420   24.2440 O.co2 190  ASP190     -0.2456
    130  N        145.6810   83.7700   30.1390 N.3   192  VAL192     -0.1245
    131  CA       144.2540   83.6490   30.4420 C.3   192  VAL192      0.1561
    132  C        144.0960   83.2870   31.9120 C.2   192  VAL192      0.2260
    133  O        144.8480   82.4860   32.4850 O.2   192  VAL192     -0.2867
    134  CB       143.5170   82.6570   29.5300 C.3   192  VAL192      0.0252
    135  CG1      143.7060   83.0580   28.0290 C.3   192  VAL192      0.0019
    136  CG2      144.0210   81.2170   29.8120 C.3   192  VAL192      0.0019
    137  N        129.4630   75.2840   22.8170 N.3   294  TYR294     -0.1241
    138  CA       130.5690   74.8130   23.6410 C.3   294  TYR294      0.1605
    139  C        129.9340   74.3360   24.9400 C.2   294  TYR294      0.2264
    140  O        129.3100   75.1300   25.6420 O.2   294  TYR294     -0.2867
    141  CB       131.3650   76.0900   23.9290 C.3   294  TYR294      0.0534
    142  CG       132.6250   75.9710   24.7310 C.ar  294  TYR294     -0.0201
    143  CD1      133.8570   75.7890   24.1120 C.ar  294  TYR294     -0.0009
    144  CD2      132.5930   76.0850   26.1070 C.ar  294  TYR294     -0.0009
    145  CE1      135.0380   75.7620   24.8690 C.ar  294  TYR294      0.0417
    146  CE2      133.7650   76.0660   26.8660 C.ar  294  TYR294      0.0417
    147  CZ       134.9870   75.8970   26.2500 C.ar  294  TYR294      0.1957
    148  OH       136.1510   75.8280   27.0160 O.3   294  TYR294     -0.2866
    149  N        128.6090   81.1130   21.3290 N.3   399  PHE399     -0.1227
    150  CA       129.3470   82.2670   20.7800 C.3   399  PHE399      0.1736
    151  C        129.5710   82.0710   19.2920 C.2   399  PHE399      0.2596
    152  O        129.5770   80.9600   18.7730 O.2   399  PHE399     -0.2718
    153  CB       130.6930   82.5390   21.5090 C.3   399  PHE399      0.0547
    154  CG       131.4780   81.2930   21.7910 C.ar  399  PHE399     -0.0202
    155  CD1      132.2510   80.7130   20.7800 C.ar  399  PHE399     -0.0042
    156  CD2      131.4380   80.7220   23.0440 C.ar  399  PHE399     -0.0042
    157  CE1      133.0010   79.5460   21.0100 C.ar  399  PHE399     -0.0003
    158  CE2      132.1640   79.5580   23.3190 C.ar  399  PHE399     -0.0003
    159  CZ       132.9360   78.9350   22.2960 C.ar  399  PHE399     -0.0000
    160  N        129.7180   83.1900   18.6050 N.am  400  SER400     -0.1938
    161  CA       129.9190   83.1960   17.1700 C.3   400  SER400      0.2055
    162  C        131.3190   82.6770   16.8250 C.2   400  SER400      0.2643
    163  O        132.2450   82.7270   17.6470 O.2   400  SER400     -0.2714
    164  CB       129.7800   84.6420   16.6460 C.3   400  SER400      0.2130
    165  OG       130.8780   85.4570   17.0470 O.3   400  SER400     -0.2179
    166  N        131.4470   82.2240   15.5860 N.am  401  ASN401     -0.1957
    167  CA       132.7100   81.7400   15.0320 C.3   401  ASN401      0.1819
    168  C        132.7120   82.2730   13.5930 C.2   401  ASN401      0.2621
    169  O        131.6680   82.2980   12.9420 O.2   401  ASN401     -0.2715
    170  CB       132.7940   80.2070   15.0250 C.3   401  ASN401      0.1195
    171  CG       134.1650   79.7520   14.5910 C.2   401  ASN401      0.2630
    172  OD1      135.1350   80.4260   14.9250 O.2   401  ASN401     -0.2716
    173  ND2      134.2760   78.6950   13.7770 N.am  401  ASN401     -0.0877
    174  N        133.8630   82.7730   13.1320 N.am  402  TRP402     -0.1974
    175  CA       133.9600   83.3410   11.7880 C.3   402  TRP402      0.1640
    176  C        134.3060   82.2030   10.8180 C.2   402  TRP402      0.2290
    177  O        135.4030   81.6410   10.8790 O.2   402  TRP402     -0.2864
    178  CB       135.0970   84.3620   11.7900 C.3   402  TRP402      0.0576
    179  CG       135.0910   85.2570   10.6280 C.ar  402  TRP402      0.0006
    180  CD1      134.8520   84.9300    9.3180 C.ar  402  TRP402      0.0946
    181  CD2      135.1760   86.6790   10.6820 C.ar  402  TRP402      0.0152
    182  NE1      134.8410   86.0690    8.5430 N.ar  402  TRP402     -0.2442
    183  CE2      135.0280   87.1570    9.3540 C.ar  402  TRP402      0.0810
    184  CE3      135.3490   87.5980   11.7280 C.ar  402  TRP402      0.0012
    185  CZ2      135.0790   88.5320    9.0420 C.ar  402  TRP402      0.0191
    186  CZ3      135.3450   88.9700   11.4390 C.ar  402  TRP402      0.0001
    187  CH2      135.2410   89.4190   10.0950 C.ar  402  TRP402      0.0015
    188  N        135.4170   89.2070   18.2160 N.3   433  ASN433     -0.1225
    189  CA       134.1790   88.4440   18.1900 C.3   433  ASN433      0.1785
    190  C        134.3300   87.2080   19.0390 C.2   433  ASN433      0.2598
    191  O        135.3920   86.5740   19.0840 O.2   433  ASN433     -0.2718
    192  CB       133.6770   88.1220   16.7810 C.3   433  ASN433      0.1169
    193  CG       134.3400   86.8950   16.1960 C.2   433  ASN433      0.2627
    194  OD1      135.4980   86.9460   15.7810 O.2   433  ASN433     -0.2716
    195  ND2      133.6510   85.7530   16.2340 N.am  433  ASN433     -0.0877
    196  N        133.2460   86.8890   19.7340 N.am  434  GLY434     -0.1942
    197  CA       133.1740   85.7180   20.5940 C.3   434  GLY434      0.2014
    198  C        133.4660   85.9790   22.0810 C.2   434  GLY434      0.2638
    199  O        132.8910   85.3160   22.9360 O.2   434  GLY434     -0.2714
    200  N        134.3180   86.9410   22.4320 N.am  435  TYR435     -0.1973
    201  CA       134.7150   87.1800   23.8330 C.3   435  TYR435      0.1639
    202  C        133.9090   88.1420   24.7050 C.2   435  TYR435      0.2290
    203  O        133.3190   89.1170   24.2090 O.2   435  TYR435     -0.2864
    204  CB       136.1890   87.6750   23.8410 C.3   435  TYR435      0.0560
    205  CG       137.1530   86.6690   23.2260 C.ar  435  TYR435     -0.0198
    206  CD1      137.5190   86.7250   21.8840 C.ar  435  TYR435     -0.0009
    207  CD2      137.6210   85.6110   23.9800 C.ar  435  TYR435     -0.0009
    208  CE1      138.4000   85.7910   21.3420 C.ar  435  TYR435      0.0417
    209  CE2      138.4810   84.6660   23.4420 C.ar  435  TYR435      0.0417
    210  CZ       138.8500   84.7480   22.1310 C.ar  435  TYR435      0.1957
    211  OH       139.6840   83.7400   21.6830 O.3   435  TYR435     -0.2866
@<TRIPOS>BOND
     1    95    93   am
     2   182   180   ar
     3   182   183   ar
     4   185   183   ar
     5   185   187   ar
     6   180   179   ar
     7   183   181   ar
     8    93    94    2
     9    93    92    1
    10    88    89    1
    11   187   186   ar
    12   179   181   ar
    13   179   178    1
    14   181   184   ar
    15    92    89    1
    16   176   177    2
    17   176   175    1
    18    89    90    1
    19   186   184   ar
    20   175   178    1
    21   175   174    1
    22    38    37    2
    23    90    96   am
    24    90    91    2
    25    96    97    1
    26   101   100    1
    27    35    36    1
    28    37    36    1
    29   169   168    2
    30    36    39    1
    31   174   168   am
    32   168   167    1
    33   102   100    1
    34    97   100    1
    35    97    98    1
    36   173   171   am
    37    98    99    2
    38    39    40    1
    39   171   172    2
    40   171   170    1
    41    40    41    1
    42   170   167    1
    43   167   166    1
    44   166   162   am
    45   194   193    2
    46    41    43   ar
    47    41    42   ar
    48   193   195   am
    49   193   192    1
    50   103   104    1
    51    85    83   ar
    52    85    87   ar
    53   164   165    1
    54   164   161    1
    55    83    82   ar
    56   192   189    1
    57   162   161    1
    58   162   163    2
    59   109   108    1
    60    87    86   ar
    61    82    81    1
    62    82    84   ar
    63   161   160    1
    64   104   105    1
    65   104   107    1
    66    81    78    1
    67    86    84   ar
    68   105   106    2
    69    80    79    2
    70   107   108    1
    71   189   188    1
    72   189   190    1
    73   108   110    1
    74   160   151   am
    75    79    78    1
    76    78    77    1
    77   152   151    2
    78   190   191    2
    79   190   196   am
    80   151   150    1
    81    77    70   am
    82   196   197    1
    83   197   198    1
    84   155   157   ar
    85   155   154   ar
    86   150   149    1
    87   150   153    1
    88    70    71    2
    89    70    69    1
    90    44    45    1
    91    72    73    1
    92    72    69    1
    93    56    57    1
    94   157   159   ar
    95    73    74    1
    96   208   206   ar
    97   208   210   ar
    98    46    45    1
    99    46    47    2
   100   153   154    1
   101    68    69    1
   102    68    58   am
   103   211   210    1
   104   111   112    1
   105   113   112    1
   106   113   114    2
   107   154   156   ar
   108   206   205   ar
   109    45    48    1
   110   117   119   ar
   111   117   116   ar
   112   115   112    1
   113   115   116    1
   114   198   200   am
   115   198   199    2
   116   210   209   ar
   117   159   158   ar
   118    57    58    1
   119    57    60    1
   120   200   201    1
   121    58    59    2
   122   119   121   ar
   123    48    49    1
   124    74    75   ar
   125    74    76   ar
   126   116   118   ar
   127   137   138    1
   128    51    49   ar
   129    51    53   ar
   130   156   158   ar
   131    60    61    1
   132   205   204    1
   133   205   207   ar
   134   128   127   ar
   135    49    50   ar
   136   209   207   ar
   137    53    54   ar
   138   138   141    1
   139   138   139    1
   140   201   204    1
   141   201   202    1
   142   141   142    1
   143   121   120   ar
   144   118   120   ar
   145   143   142   ar
   146   143   145   ar
   147   203   202    2
   148   129   127   ar
   149   127   126    1
   150    50    52   ar
   151    61    63   ar
   152    61    62   ar
   153   142   144   ar
   154    54    52   ar
   155    54    55    1
   156   145   147   ar
   157   139   140    2
   158    63    65   ar
   159    22    21   ar
   160    62    64   ar
   161   126   123    1
   162   123   122    1
   163   123   124    1
   164   144   146   ar
   165   147   146   ar
   166   147   148    1
   167    23    21   ar
   168    21    20    1
   169    65    66   ar
   170    19    20    1
   171    19    16    1
   172    18    17    2
   173    64    66   ar
   174   125   124    2
   175    17    16    1
   176    66    67    1
   177    16    15    1
   178   135   134    1
   179    28    29    1
   180    28    25    1
   181    27    26    2
   182    29    31   ar
   183    29    30   ar
   184    31    33   ar
   185    30    32   ar
   186    33    34   ar
   187    32    34   ar
   188    26    25    1
   189   134   136    1
   190   134   131    1
   191    25    24    1
   192   130   131    1
   193    13    11   ar
   194    13    14   ar
   195    11     8   ar
   196   131   132    1
   197     4     3    2
   198     5     6    1
   199     5     2    1
   200    14    12   ar
   201     8     6   ar
   202     8    10   ar
   203     6     7   ar
   204    12    10   ar
   205    10     9   ar
   206     3     2    1
   207     7     9   ar
   208     1     2    1
   209   132   133    2
