@<TRIPOS>MOLECULE
tmp/1h83C01.pdb
 145 146 0 0 0
SMALL
GASTEIGER

@<TRIPOS>ATOM
      1  N         68.1750   39.3930   14.1790 N.3    56  TRP56      -0.1241
      2  CA        67.1050   38.9460   15.0570 C.3    56  TRP56       0.1605
      3  C         65.7230   39.4010   14.6200 C.2    56  TRP56       0.2264
      4  O         65.5770   40.4580   14.0060 O.2    56  TRP56      -0.2867
      5  CB        67.2570   39.6630   16.3990 C.3    56  TRP56       0.0550
      6  CG        68.2720   39.0820   17.3110 C.ar   56  TRP56       0.0003
      7  CD1       68.0750   38.1020   18.2710 C.ar   56  TRP56       0.0946
      8  CD2       69.6310   39.5020   17.4410 C.ar   56  TRP56       0.0152
      9  NE1       69.2310   37.9190   19.0030 N.ar   56  TRP56      -0.2442
     10  CE2       70.1980   38.7590   18.5130 C.ar   56  TRP56       0.0810
     11  CE3       70.4280   40.4380   16.7650 C.ar   56  TRP56       0.0012
     12  CZ2       71.5550   38.8760   18.8750 C.ar   56  TRP56       0.0191
     13  CZ3       71.7860   40.5860   17.1440 C.ar   56  TRP56       0.0001
     14  CH2       72.3340   39.7810   18.1770 C.ar   56  TRP56       0.0015
     15  N         62.9840   40.8060   16.5230 N.3    58  GLU58      -0.1245
     16  CA        62.8190   41.3850   17.8560 C.3    58  GLU58       0.1567
     17  C         61.3740   41.7110   18.2120 C.2    58  GLU58       0.2260
     18  O         60.7100   42.4020   17.4510 O.2    58  GLU58      -0.2867
     19  CB        63.6740   42.6460   17.9790 C.3    58  GLU58       0.0388
     20  CG        65.1490   42.3010   17.8230 C.3    58  GLU58       0.1160
     21  CD        66.0410   43.4040   18.3340 C.2    58  GLU58       0.3649
     22  OE1       65.8330   43.9410   19.4480 O.co2  58  GLU58      -0.2457
     23  OE2       66.8970   43.8210   17.5380 O.co2  58  GLU58      -0.2457
     24  N         73.8250   48.6630   22.9170 N.3   165  TYR165     -0.1227
     25  CA        73.7380   47.4510   22.1110 C.3   165  TYR165      0.1736
     26  C         72.3780   47.3540   21.4290 C.2   165  TYR165      0.2595
     27  O         72.1870   46.5270   20.5420 O.2   165  TYR165     -0.2718
     28  CB        73.9460   46.3000   23.0730 C.3   165  TYR165      0.0548
     29  CG        73.9220   44.9070   22.5080 C.ar  165  TYR165     -0.0200
     30  CD1       74.7160   44.5460   21.4260 C.ar  165  TYR165     -0.0009
     31  CD2       73.2930   43.9000   23.2160 C.ar  165  TYR165     -0.0009
     32  CE1       74.7990   43.2130   20.9930 C.ar  165  TYR165      0.0417
     33  CE2       73.3730   42.5680   22.8020 C.ar  165  TYR165      0.0417
     34  CZ        74.1160   42.2260   21.6880 C.ar  165  TYR165      0.1957
     35  OH        74.1990   40.8910   21.3160 O.3   165  TYR165     -0.2866
     36  N         71.4210   48.1790   21.8490 N.am  166  GLU166     -0.1965
     37  CA        70.1190   48.1100   21.1940 C.3   166  GLU166      0.1733
     38  C         69.9450   49.2940   20.2570 C.2   166  GLU166      0.2616
     39  O         69.4020   49.1790   19.1660 O.2   166  GLU166     -0.2715
     40  CB        68.9790   48.1860   22.2230 C.3   166  GLU166      0.0429
     41  CG        67.5690   48.0050   21.5670 C.3   166  GLU166      0.1163
     42  CD        67.4160   46.6530   20.8440 C.2   166  GLU166      0.3649
     43  OE1       66.5260   46.4260   19.9930 O.co2 166  GLU166     -0.2457
     44  OE2       68.1890   45.7190   21.1280 O.co2 166  GLU166     -0.2457
     45  N         70.3700   50.4620   20.7150 N.am  167  PHE167     -0.1974
     46  CA        70.1510   51.6690   19.9240 C.3   167  PHE167      0.1639
     47  C         71.3450   52.1320   19.1270 C.2   167  PHE167      0.2290
     48  O         71.2120   53.0430   18.3360 O.2   167  PHE167     -0.2864
     49  CB        69.7610   52.8290   20.8730 C.3   167  PHE167      0.0560
     50  CG        68.5130   52.5180   21.6320 C.ar  167  PHE167     -0.0200
     51  CD1       68.4910   52.5360   23.0020 C.ar  167  PHE167     -0.0042
     52  CD2       67.4000   52.0730   20.9440 C.ar  167  PHE167     -0.0042
     53  CE1       67.3270   52.1830   23.6710 C.ar  167  PHE167     -0.0003
     54  CE2       66.2400   51.7160   21.5990 C.ar  167  PHE167     -0.0003
     55  CZ        66.2090   51.7530   22.9690 C.ar  167  PHE167     -0.0000
     56  N         62.0680   56.2290   23.6490 N.3   179  THR179     -0.1218
     57  CA        62.7420   54.9280   23.5780 C.3   179  THR179      0.1862
     58  C         62.5540   54.1430   24.8600 C.2   179  THR179      0.2287
     59  O         62.8510   52.9520   24.9110 O.2   179  THR179     -0.2866
     60  CB        64.2730   55.0690   23.3460 C.3   179  THR179      0.1770
     61  OG1       64.8130   55.7000   24.5000 O.3   179  THR179     -0.2211
     62  CG2       64.5610   56.0400   22.1870 C.3   179  THR179      0.0375
     63  N         60.0690   50.9000   24.8950 N.3   182  LEU182     -0.1245
     64  CA        60.0380   50.8940   23.4240 C.3   182  LEU182      0.1561
     65  C         58.8350   50.1090   22.8920 C.2   182  LEU182      0.2260
     66  O         58.5640   48.9830   23.3390 O.2   182  LEU182     -0.2867
     67  CB        61.3370   50.2360   22.9660 C.3   182  LEU182      0.0270
     68  CG        61.9540   50.4420   21.5980 C.3   182  LEU182      0.0019
     69  CD1       62.4050   51.8980   21.4270 C.3   182  LEU182      0.0001
     70  CD2       63.1710   49.5020   21.5610 C.3   182  LEU182      0.0001
     71  N         76.2000   50.1930   13.6840 N.3   294  TYR294     -0.1241
     72  CA        76.3650   49.0320   14.5750 C.3   294  TYR294      0.1605
     73  C         77.1660   48.0310   13.7410 C.2   294  TYR294      0.2264
     74  O         76.7370   47.5590   12.6760 O.2   294  TYR294     -0.2867
     75  CB        74.9330   48.5400   14.7930 C.3   294  TYR294      0.0534
     76  CG        74.6720   47.2830   15.6100 C.ar  294  TYR294     -0.0201
     77  CD1       74.2660   47.3580   16.9480 C.ar  294  TYR294     -0.0009
     78  CD2       74.7260   46.0160   15.0180 C.ar  294  TYR294     -0.0009
     79  CE1       73.9580   46.1970   17.7020 C.ar  294  TYR294      0.0417
     80  CE2       74.4620   44.8710   15.7620 C.ar  294  TYR294      0.0417
     81  CZ        74.0570   44.9790   17.0780 C.ar  294  TYR294      0.1957
     82  OH        73.7590   43.8350   17.7660 O.3   294  TYR294     -0.2866
     83  N         71.0640   51.9120   11.1710 N.3   399  PHE399     -0.1227
     84  CA        69.6340   52.1460   11.4830 C.3   399  PHE399      0.1736
     85  C         69.4660   53.4640   12.2180 C.2   399  PHE399      0.2596
     86  O         70.4260   53.9400   12.8170 O.2   399  PHE399     -0.2718
     87  CB        68.9770   51.0090   12.2450 C.3   399  PHE399      0.0547
     88  CG        69.8500   50.4270   13.3220 C.ar  399  PHE399     -0.0202
     89  CD1       69.9600   51.0640   14.5630 C.ar  399  PHE399     -0.0042
     90  CD2       70.5250   49.2330   13.1060 C.ar  399  PHE399     -0.0042
     91  CE1       70.7340   50.5240   15.5930 C.ar  399  PHE399     -0.0003
     92  CE2       71.2890   48.6910   14.1270 C.ar  399  PHE399     -0.0003
     93  CZ        71.4000   49.3130   15.3650 C.ar  399  PHE399     -0.0000
     94  N         68.2990   54.0960   12.1100 N.am  400  SER400     -0.1938
     95  CA        68.1220   55.4060   12.7360 C.3   400  SER400      0.2055
     96  C         68.0220   55.2760   14.2660 C.2   400  SER400      0.2643
     97  O         67.6830   54.2180   14.7840 O.2   400  SER400     -0.2714
     98  CB        66.7890   55.9950   12.2120 C.3   400  SER400      0.2130
     99  OG        65.6810   55.1640   12.5530 O.3   400  SER400     -0.2179
    100  N         68.2140   56.3710   14.9880 N.am  401  ASN401     -0.1957
    101  CA        68.0430   56.3730   16.4500 C.3   401  ASN401      0.1819
    102  C         67.4110   57.7490   16.7300 C.2   401  ASN401      0.2621
    103  O         67.7550   58.7470   16.0690 O.2   401  ASN401     -0.2715
    104  CB        69.3870   56.2900   17.1900 C.3   401  ASN401      0.1195
    105  CG        69.1930   56.2360   18.7100 C.2   401  ASN401      0.2630
    106  OD1       68.3320   55.4960   19.1920 O.2   401  ASN401     -0.2716
    107  ND2       69.9800   57.0140   19.4610 N.am  401  ASN401     -0.0877
    108  N         66.5070   57.7950   17.7060 N.am  402  TRP402     -0.1974
    109  CA        65.7750   59.0140   18.0590 C.3   402  TRP402      0.1640
    110  C         66.5010   59.8210   19.1210 C.2   402  TRP402      0.2290
    111  O         66.5950   59.4280   20.3000 O.2   402  TRP402     -0.2864
    112  CB        64.4280   58.6040   18.6580 C.3   402  TRP402      0.0576
    113  CG        63.4000   59.6980   18.6980 C.ar  402  TRP402      0.0006
    114  CD1       63.5490   60.9990   19.1160 C.ar  402  TRP402      0.0946
    115  CD2       62.0550   59.5730   18.2090 C.ar  402  TRP402      0.0152
    116  NE1       62.3530   61.6810   18.9240 N.ar  402  TRP402     -0.2442
    117  CE2       61.4200   60.8180   18.4060 C.ar  402  TRP402      0.0810
    118  CE3       61.3230   58.5030   17.6690 C.ar  402  TRP402      0.0012
    119  CZ2       60.0870   61.0350   18.0600 C.ar  402  TRP402      0.0191
    120  CZ3       59.9810   58.7150   17.3300 C.ar  402  TRP402      0.0001
    121  CH2       59.3840   59.9660   17.5640 C.ar  402  TRP402      0.0015
    122  N         60.7690   52.5900   14.5750 N.3   433  ASN433     -0.1225
    123  CA        61.9160   52.9340   13.7590 C.3   433  ASN433      0.1785
    124  C         63.0690   52.0550   14.1820 C.2   433  ASN433      0.2598
    125  O         63.1870   51.6610   15.3380 O.2   433  ASN433     -0.2718
    126  CB        62.3310   54.4020   13.8420 C.3   433  ASN433      0.1169
    127  CG        63.0120   54.7200   15.1270 C.2   433  ASN433      0.2627
    128  OD1       64.2500   54.8770   15.2440 O.2   433  ASN433     -0.2716
    129  ND2       62.1650   54.8610   16.1260 N.am  433  ASN433     -0.0877
    130  N         63.9210   51.8000   13.2030 N.am  434  GLY434     -0.1942
    131  CA        65.1000   50.9720   13.4140 C.3   434  GLY434      0.2014
    132  C         64.9710   49.4720   13.1240 C.2   434  GLY434      0.2638
    133  O         65.9760   48.8200   12.8790 O.2   434  GLY434     -0.2714
    134  N         63.7650   48.9160   13.1440 N.am  435  TYR435     -0.1973
    135  CA        63.6110   47.4680   12.9710 C.3   435  TYR435      0.1639
    136  C         63.2100   46.9140   11.6100 C.2   435  TYR435      0.2290
    137  O         62.6140   47.5870   10.7720 O.2   435  TYR435     -0.2864
    138  CB        62.5960   46.9800   14.0200 C.3   435  TYR435      0.0560
    139  CG        63.1030   47.2140   15.4250 C.ar  435  TYR435     -0.0198
    140  CD1       62.8150   48.4000   16.0980 C.ar  435  TYR435     -0.0009
    141  CD2       63.9820   46.3000   16.0170 C.ar  435  TYR435     -0.0009
    142  CE1       63.3450   48.6510   17.3630 C.ar  435  TYR435      0.0417
    143  CE2       64.5130   46.5260   17.2900 C.ar  435  TYR435      0.0417
    144  CZ        64.1780   47.7030   17.9450 C.ar  435  TYR435      0.1957
    145  OH        64.7110   47.9550   19.1880 O.3   435  TYR435     -0.2866
@<TRIPOS>BOND
     1   137   136    2
     2    83    84    1
     3    84    85    1
     4    84    87    1
     5   136   135    1
     6    94    85   am
     7    94    95    1
     8    98    99    1
     9    98    95    1
    10    85    86    2
    11    87    88    1
    12    74    73    2
    13    95    96    1
    14   133   132    2
    15   135   134    1
    16   135   138    1
    17    90    88   ar
    18    90    92   ar
    19   132   134   am
    20   132   131    1
    21   130   131    1
    22   130   124   am
    23    88    89   ar
    24    71    72    1
    25    73    72    1
    26   123   126    1
    27   123   124    1
    28   123   122    1
    29   126   127    1
    30     4     3    2
    31   138   139    1
    32    92    93   ar
    33     1     2    1
    34   124   125    2
    35    96    97    2
    36    96   100   am
    37    89    91   ar
    38    72    75    1
    39     3     2    1
    40    75    76    1
    41   100   101    1
    42    78    76   ar
    43    78    80   ar
    44     2     5    1
    45   127   128    2
    46   127   129   am
    47    93    91   ar
    48   139   141   ar
    49   139   140   ar
    50    76    77   ar
    51    80    81   ar
    52   141   143   ar
    53   103   102    2
    54   140   142   ar
    55     5     6    1
    56   101   102    1
    57   101   104    1
    58    15    16    1
    59   102   108   am
    60    11    13   ar
    61    11     8   ar
    62    77    79   ar
    63    81    79   ar
    64    81    82    1
    65    13    14   ar
    66   104   105    1
    67   143   144   ar
    68     6     8   ar
    69     6     7   ar
    70   120   121   ar
    71   120   118   ar
    72   142   144   ar
    73     8    10   ar
    74    18    17    2
    75    23    21   ar
    76   121   119   ar
    77   118   115   ar
    78   108   109    1
    79    20    19    1
    80    20    21    1
    81    16    19    1
    82    16    17    1
    83   144   145    1
    84   109   112    1
    85   109   110    1
    86   119   117   ar
    87    14    12   ar
    88   115   117   ar
    89   115   113   ar
    90     7     9   ar
    91    21    22   ar
    92    48    47    2
    93   117   116   ar
    94    10    12   ar
    95    10     9   ar
    96   112   113    1
    97   113   114   ar
    98   105   106    2
    99   105   107   am
   100   116   114   ar
   101   110   111    2
   102    47    46    1
   103    39    38    2
   104    46    45    1
   105    46    49    1
   106    43    42   ar
   107    38    45   am
   108    38    37    1
   109    27    26    2
   110    42    44   ar
   111    42    41    1
   112    49    50    1
   113    52    54   ar
   114    52    50   ar
   115    32    30   ar
   116    32    34   ar
   117    37    36    1
   118    37    40    1
   119    35    34    1
   120    30    29   ar
   121    69    68    1
   122    26    36   am
   123    26    25    1
   124    70    68    1
   125    41    40    1
   126    68    67    1
   127    54    55   ar
   128    50    51   ar
   129    34    33   ar
   130    25    24    1
   131    25    28    1
   132    62    60    1
   133    29    28    1
   134    29    31   ar
   135    33    31   ar
   136    65    66    2
   137    65    64    1
   138    67    64    1
   139    55    53   ar
   140    51    53   ar
   141    60    57    1
   142    60    61    1
   143    64    63    1
   144    57    56    1
   145    57    58    1
   146    58    59    2
