@<TRIPOS>MOLECULE
tmp/1h86A01.pdb
 158 155 0 0 0
SMALL
GASTEIGER

@<TRIPOS>ATOM
      1  N        135.1710   50.5520   -6.3720 N.3    53  GLY53      -0.1210
      2  CA       135.0710   51.9980   -6.6420 C.3    53  GLY53       0.1956
      3  C        133.7450   52.4320   -7.2610 C.2    53  GLY53       0.2612
      4  O        132.6540   52.1420   -6.7310 O.2    53  GLY53      -0.2717
      5  N        133.8370   53.1470   -8.3860 N.am   54  ALA54      -0.1965
      6  CA       132.6330   53.6350   -9.0390 C.3    54  ALA54       0.1728
      7  C        131.7170   52.4400   -9.3380 C.2    54  ALA54       0.2616
      8  O        132.1630   51.3310   -9.7070 O.2    54  ALA54      -0.2715
      9  CB       132.9570   54.3670  -10.3430 C.3    54  ALA54       0.0334
     10  N        130.4170   52.7070   -9.2370 N.am   55  ASN55      -0.1958
     11  CA       129.4480   51.6480   -9.5060 C.3    55  ASN55       0.1819
     12  C        128.3040   52.0680  -10.4250 C.2    55  ASN55       0.2621
     13  O        127.6530   51.2040  -11.0170 O.2    55  ASN55      -0.2715
     14  CB       128.8570   51.1850   -8.1810 C.3    55  ASN55       0.1195
     15  CG       128.6050   49.6910   -8.1280 C.2    55  ASN55       0.2630
     16  OD1      128.8860   49.1030   -7.0890 O.2    55  ASN55      -0.2716
     17  ND2      128.1400   49.0750   -9.2130 N.am   55  ASN55      -0.0877
     18  N        128.0140   53.3680  -10.4700 N.am   56  TRP56      -0.1974
     19  CA       126.9350   53.8670  -11.2950 C.3    56  TRP56       0.1640
     20  C        127.3480   54.7020  -12.4810 C.2    56  TRP56       0.2290
     21  O        128.3850   55.3450  -12.4750 O.2    56  TRP56      -0.2864
     22  CB       126.0320   54.8230  -10.4910 C.3    56  TRP56       0.0576
     23  CG       125.1070   54.2200   -9.4320 C.ar   56  TRP56       0.0006
     24  CD1      123.7780   53.8960   -9.5960 C.ar   56  TRP56       0.0946
     25  CD2      125.4240   53.9100   -8.0530 C.ar   56  TRP56       0.0152
     26  NE1      123.2560   53.4190   -8.4120 N.ar   56  TRP56      -0.2442
     27  CE2      124.2490   53.3890   -7.4640 C.ar   56  TRP56       0.0810
     28  CE3      126.5910   54.0080   -7.2620 C.ar   56  TRP56       0.0012
     29  CZ2      124.1910   53.0170   -6.1120 C.ar   56  TRP56       0.0191
     30  CZ3      126.5460   53.6110   -5.9210 C.ar   56  TRP56       0.0001
     31  CH2      125.3360   53.1420   -5.3530 C.ar   56  TRP56       0.0015
     32  N        126.0470   57.8900  -13.5760 N.3    58  GLU58      -0.1245
     33  CA       125.1750   58.8810  -12.9820 C.3    58  GLU58       0.1567
     34  C        124.8990   59.9870  -13.9840 C.2    58  GLU58       0.2260
     35  O        125.8100   60.5720  -14.5550 O.2    58  GLU58      -0.2867
     36  CB       125.8960   59.4720  -11.7690 C.3    58  GLU58       0.0388
     37  CG       126.2660   58.4020  -10.7300 C.3    58  GLU58       0.1160
     38  CD       126.5880   59.0350   -9.3650 C.2    58  GLU58       0.3649
     39  OE1      125.7180   59.7810   -8.8570 O.co2  58  GLU58      -0.2457
     40  OE2      127.7090   58.8800   -8.8180 O.co2  58  GLU58      -0.2457
     41  N        114.6840   55.2660   -5.9770 N.3    85  PHE85      -0.1241
     42  CA       114.7270   55.6580   -4.5680 C.3    85  PHE85       0.1605
     43  C        113.3550   56.0600   -4.0900 C.2    85  PHE85       0.2264
     44  O        113.1480   56.6340   -3.0260 O.2    85  PHE85      -0.2867
     45  CB       115.7480   56.8000   -4.3790 C.3    85  PHE85       0.0534
     46  CG       117.1830   56.4090   -4.7180 C.ar   85  PHE85      -0.0203
     47  CD1      117.7120   56.6650   -5.9760 C.ar   85  PHE85      -0.0042
     48  CD2      117.9950   55.7590   -3.7900 C.ar   85  PHE85      -0.0042
     49  CE1      119.0250   56.2960   -6.3020 C.ar   85  PHE85      -0.0003
     50  CE2      119.2960   55.3870   -4.1040 C.ar   85  PHE85      -0.0003
     51  CZ       119.8160   55.6650   -5.3580 C.ar   85  PHE85      -0.0000
     52  N        121.8680   60.7330    3.3020 N.3   161  TYR161     -0.1241
     53  CA       121.5900   60.0430    2.0600 C.3   161  TYR161      0.1605
     54  C        121.4500   61.0730    0.9370 C.2   161  TYR161      0.2264
     55  O        121.8190   60.8270   -0.2020 O.2   161  TYR161     -0.2867
     56  CB       120.2880   59.2590    2.2550 C.3   161  TYR161      0.0534
     57  CG       119.5210   59.2240    0.9540 C.ar  161  TYR161     -0.0201
     58  CD1      119.7700   58.2490   -0.0020 C.ar  161  TYR161     -0.0009
     59  CD2      118.4870   60.1100    0.7350 C.ar  161  TYR161     -0.0009
     60  CE1      119.0230   58.2200   -1.1720 C.ar  161  TYR161      0.0417
     61  CE2      117.7480   60.1020   -0.4320 C.ar  161  TYR161      0.0417
     62  CZ       118.0560   59.1790   -1.3940 C.ar  161  TYR161      0.1957
     63  OH       117.2650   59.1870   -2.5120 O.3   161  TYR161     -0.2866
     64  N        126.0710   60.9620    0.7620 N.3   165  TYR165     -0.1227
     65  CA       126.0910   59.7370   -0.0350 C.3   165  TYR165      0.1736
     66  C        126.4470   60.0650   -1.4860 C.2   165  TYR165      0.2595
     67  O        126.8410   59.1710   -2.2470 O.2   165  TYR165     -0.2718
     68  CB       124.6850   59.1110    0.0760 C.3   165  TYR165      0.0548
     69  CG       124.4160   57.8030   -0.6820 C.ar  165  TYR165     -0.0200
     70  CD1      125.3150   56.7260   -0.6430 C.ar  165  TYR165     -0.0009
     71  CD2      123.1870   57.5870   -1.2840 C.ar  165  TYR165     -0.0009
     72  CE1      125.0280   55.4890   -1.2750 C.ar  165  TYR165      0.0417
     73  CE2      122.8820   56.3550   -1.8470 C.ar  165  TYR165      0.0417
     74  CZ       123.7890   55.3040   -1.8530 C.ar  165  TYR165      0.1957
     75  OH       123.4430   54.0850   -2.4330 O.3   165  TYR165     -0.2866
     76  N        126.3240   61.3310   -1.8790 N.am  166  GLU166     -0.1979
     77  CA       126.6520   61.6720   -3.2570 C.3   166  GLU166      0.1602
     78  C        128.0490   62.3020   -3.2270 C.2   166  GLU166      0.2287
     79  O        128.8900   61.9670   -4.0510 O.2   166  GLU166     -0.2864
     80  CB       125.6480   62.6990   -3.7970 C.3   166  GLU166      0.0415
     81  CG       125.9800   63.0790   -5.2330 C.3   166  GLU166      0.1163
     82  CD       125.7440   61.8990   -6.1520 C.2   166  GLU166      0.3649
     83  OE1      126.4710   61.6530   -7.1380 O.co2 166  GLU166     -0.2457
     84  OE2      124.7260   61.2430   -5.8780 O.co2 166  GLU166     -0.2457
     85  N        123.6020   66.0800  -13.2070 N.3   185  PHE185     -0.1241
     86  CA       122.1880   65.7460  -13.3170 C.3   185  PHE185      0.1605
     87  C        121.4350   66.7420  -14.1620 C.2   185  PHE185      0.2264
     88  O        120.5600   66.3080  -14.9170 O.2   185  PHE185     -0.2867
     89  CB       121.4750   65.5200  -11.9810 C.3   185  PHE185      0.0534
     90  CG       122.1420   64.4380  -11.1580 C.ar  185  PHE185     -0.0203
     91  CD1      122.8620   64.7580  -10.0160 C.ar  185  PHE185     -0.0042
     92  CD2      122.0860   63.1070  -11.5630 C.ar  185  PHE185     -0.0042
     93  CE1      123.5300   63.7790   -9.2940 C.ar  185  PHE185     -0.0003
     94  CE2      122.7260   62.1100  -10.8460 C.ar  185  PHE185     -0.0003
     95  CZ       123.4890   62.4480   -9.7200 C.ar  185  PHE185     -0.0000
     96  N        118.3090   62.9550  -14.4930 N.3   190  ASP190     -0.1239
     97  CA       118.2500   62.5660  -13.0910 C.3   190  ASP190      0.1674
     98  C        118.4820   61.1050  -12.7120 C.2   190  ASP190      0.2266
     99  O        118.6570   60.7730  -11.5340 O.2   190  ASP190     -0.2867
    100  CB       116.9390   63.0330  -12.4760 C.3   190  ASP190      0.1410
    101  CG       116.8480   64.5430  -12.3720 C.2   190  ASP190      0.3668
    102  OD1      117.8540   65.1570  -11.9560 O.co2 190  ASP190     -0.2456
    103  OD2      115.7670   65.0920  -12.6690 O.co2 190  ASP190     -0.2456
    104  N        120.1690   57.2350  -12.4460 N.3   192  VAL192     -0.1245
    105  CA       121.4810   56.6610  -12.2260 C.3   192  VAL192      0.1561
    106  C        121.2590   55.1610  -12.4630 C.2   192  VAL192      0.2260
    107  O        120.2170   54.6270  -12.0820 O.2   192  VAL192     -0.2867
    108  CB       122.0550   56.9770  -10.8000 C.3   192  VAL192      0.0252
    109  CG1      122.1890   58.5010  -10.5690 C.3   192  VAL192      0.0019
    110  CG2      121.2610   56.2800   -9.6770 C.3   192  VAL192      0.0019
    111  N        134.9140   57.5140    0.2660 N.3   294  TYR294     -0.1241
    112  CA       133.6180   56.8390    0.2740 C.3   294  TYR294      0.1605
    113  C        133.9380   55.3510    0.3420 C.2   294  TYR294      0.2264
    114  O        134.5680   54.7820   -0.5570 O.2   294  TYR294     -0.2867
    115  CB       133.0560   57.1870   -1.0860 C.3   294  TYR294      0.0534
    116  CG       131.6930   56.6490   -1.4520 C.ar  294  TYR294     -0.0201
    117  CD1      130.5590   57.4570   -1.3450 C.ar  294  TYR294     -0.0009
    118  CD2      131.5480   55.3670   -2.0090 C.ar  294  TYR294     -0.0009
    119  CE1      129.3120   57.0100   -1.8210 C.ar  294  TYR294      0.0417
    120  CE2      130.3020   54.9320   -2.5170 C.ar  294  TYR294      0.0417
    121  CZ       129.1770   55.7410   -2.3940 C.ar  294  TYR294      0.1957
    122  OH       127.9300   55.3150   -2.8410 O.3   294  TYR294     -0.2866
    123  N        132.9160   51.4260    0.5320 N.3   296  LYS296     -0.1245
    124  CA       131.8250   50.5020    0.2370 C.3   296  LYS296      0.1561
    125  C        132.0310   49.2030    1.0270 C.2   296  LYS296      0.2260
    126  O        132.8680   48.3880    0.6590 O.2   296  LYS296     -0.2867
    127  CB       131.7830   50.3060   -1.2850 C.3   296  LYS296      0.0271
    128  CG       131.4040   51.5530   -2.0270 C.3   296  LYS296      0.0035
    129  CD       131.6110   51.3520   -3.5290 C.3   296  LYS296      0.0206
    130  CE       130.4580   50.5610   -4.0850 C.3   296  LYS296      0.1093
    131  NZ       130.6820   50.3000   -5.5290 N.3   296  LYS296     -0.1314
    132  N        137.1170   60.4470   -4.4930 N.3   399  PHE399     -0.1241
    133  CA       136.7810   61.4330   -5.5430 C.3   399  PHE399      0.1605
    134  C        136.7560   62.8070   -4.8930 C.2   399  PHE399      0.2264
    135  O        136.5680   62.9330   -3.6720 O.2   399  PHE399     -0.2867
    136  CB       135.4560   61.1780   -6.2630 C.3   399  PHE399      0.0534
    137  CG       134.3400   60.7600   -5.3390 C.ar  399  PHE399     -0.0203
    138  CD1      133.6100   61.7030   -4.6290 C.ar  399  PHE399     -0.0042
    139  CD2      134.0360   59.4140   -5.1640 C.ar  399  PHE399     -0.0042
    140  CE1      132.5570   61.3110   -3.7800 C.ar  399  PHE399     -0.0003
    141  CE2      132.9730   59.0030   -4.3350 C.ar  399  PHE399     -0.0003
    142  CZ       132.2250   59.9590   -3.6310 C.ar  399  PHE399     -0.0000
    143  N        134.3940   64.6300   -9.7760 N.3   434  GLY434     -0.1210
    144  CA       133.9190   63.5510   -8.9420 C.3   434  GLY434      0.1956
    145  C        133.3330   62.3190   -9.6070 C.2   434  GLY434      0.2611
    146  O        133.0120   61.3660   -8.9070 O.2   434  GLY434     -0.2717
    147  N        133.2030   62.3080  -10.9270 N.am  435  TYR435     -0.1976
    148  CA       132.5430   61.2070  -11.6360 C.3   435  TYR435      0.1639
    149  C        133.3790   60.5790  -12.7390 C.2   435  TYR435      0.2290
    150  O        134.4000   61.1010  -13.2190 O.2   435  TYR435     -0.2864
    151  CB       131.3110   61.7910  -12.3540 C.3   435  TYR435      0.0560
    152  CG       130.3220   62.3180  -11.3370 C.ar  435  TYR435     -0.0198
    153  CD1      130.3650   63.6450  -10.8990 C.ar  435  TYR435     -0.0009
    154  CD2      129.4420   61.4530  -10.6990 C.ar  435  TYR435     -0.0009
    155  CE1      129.5360   64.0960   -9.8680 C.ar  435  TYR435      0.0417
    156  CE2      128.5950   61.8940   -9.6790 C.ar  435  TYR435      0.0417
    157  CZ       128.6640   63.2080   -9.2410 C.ar  435  TYR435      0.1957
    158  OH       127.8140   63.6150   -8.2260 O.3   435  TYR435     -0.2866
@<TRIPOS>BOND
     1    88    87    2
     2    35    34    2
     3    96    97    1
     4    87    86    1
     5    34    33    1
     6    32    33    1
     7    86    85    1
     8    86    89    1
     9   150   149    2
    10    97    98    1
    11    97   100    1
    12    33    36    1
    13   149   148    1
    14    98    99    2
    15   103   101   ar
    16    20    21    2
    17    20    19    1
    18   100   101    1
    19   106   105    1
    20   106   107    2
    21   104   105    1
    22   101   102   ar
    23   151   148    1
    24   151   152    1
    25   105   108    1
    26    89    90    1
    27    36    37    1
    28   148   147    1
    29    92    90   ar
    30    92    94   ar
    31   152   153   ar
    32   152   154   ar
    33    19    22    1
    34    19    18    1
    35    90    91   ar
    36    13    12    2
    37   147   145   am
    38   153   155   ar
    39    94    95   ar
    40   108   109    1
    41   108   110    1
    42    37    38    1
    43   154   156   ar
    44    22    23    1
    45    18    12   am
    46    12    11    1
    47     9     6    1
    48    91    93   ar
    49   155   157   ar
    50   143   144    1
    51    95    93   ar
    52     8     7    2
    53   156   157   ar
    54   145   144    1
    55   145   146    2
    56    24    23   ar
    57    24    26   ar
    58    11    10    1
    59    11    14    1
    60    23    25   ar
    61    38    39   ar
    62    38    40   ar
    63     7    10   am
    64     7     6    1
    65   157   158    1
    66    17    15   am
    67     6     5    1
    68    26    27   ar
    69     5     3   am
    70    14    15    1
    71    15    16    2
    72    25    27   ar
    73    25    28   ar
    74    27    29   ar
    75    28    30   ar
    76     3     4    2
    77     3     2    1
    78    83    82   ar
    79     2     1    1
    80    49    47   ar
    81    49    51   ar
    82   136   133    1
    83   136   137    1
    84    82    84   ar
    85    82    81    1
    86    29    31   ar
    87    41    42    1
    88    47    46   ar
    89    30    31   ar
    90   133   134    1
    91   133   132    1
    92   131   130    1
    93    51    50   ar
    94   137   139   ar
    95   137   138   ar
    96    81    80    1
    97   139   141   ar
    98   134   135    2
    99    46    45    1
   100    46    48   ar
   101   138   140   ar
   102    42    45    1
   103    42    43    1
   104   141   142   ar
   105    50    48   ar
   106    43    44    2
   107   130   129    1
   108    79    78    2
   109    80    77    1
   110   140   142   ar
   111   129   128    1
   112    77    78    1
   113    77    76    1
   114   122   121    1
   115   120   121   ar
   116   120   118   ar
   117    63    62    1
   118    75    74    1
   119   121   119   ar
   120    67    66    2
   121   128   127    1
   122   118   116   ar
   123    76    66   am
   124    74    73   ar
   125    74    72   ar
   126    73    71   ar
   127   119   117   ar
   128    66    65    1
   129   116   117   ar
   130   116   115    1
   131    62    60   ar
   132    62    61   ar
   133   127   124    1
   134    71    69   ar
   135    72    70   ar
   136    60    58   ar
   137   115   112    1
   138    69    70   ar
   139    69    68    1
   140   114   113    2
   141    61    59   ar
   142    55    54    2
   143    65    68    1
   144    65    64    1
   145    58    57   ar
   146   124   123    1
   147   124   125    1
   148   111   112    1
   149   112   113    1
   150   126   125    2
   151    59    57   ar
   152    54    53    1
   153    57    56    1
   154    53    56    1
   155    53    52    1
