@<TRIPOS>MOLECULE
tmp/1h8dA01.pdb
 218 215 0 0 0
SMALL
GASTEIGER

@<TRIPOS>ATOM
      1  N         22.8220   -6.6330   18.1630 N.3    43  HIS43      -0.1241
      2  CA        22.7190   -8.0060   17.6720 C.3    43  HIS43       0.1621
      3  C         21.9400   -8.1200   16.3710 C.2    43  HIS43       0.2264
      4  O         22.0130   -9.1560   15.7050 O.2    43  HIS43      -0.2867
      5  CB        22.1880   -8.9830   18.7100 C.3    43  HIS43       0.0745
      6  CG        20.7030   -9.0720   18.8110 C.ar   43  HIS43       0.0817
      7  ND1       19.9410   -8.2950   19.6670 N.ar   43  HIS43      -0.2268
      8  CD2       19.8470   -9.8760   18.1360 C.ar   43  HIS43       0.1154
      9  CE1       18.6650   -8.6320   19.5120 C.ar   43  HIS43       0.1986
     10  NE2       18.5900   -9.5810   18.5900 N.ar   43  HIS43      -0.2212
     11  N         26.1470  -10.6200   15.0470 N.3    47  TYR47      -0.1241
     12  CA        25.9680  -11.7320   15.9600 C.3    47  TYR47       0.1605
     13  C         26.7610  -12.9240   15.3920 C.2    47  TYR47       0.2264
     14  O         26.1970  -13.8140   14.7640 O.2    47  TYR47      -0.2867
     15  CB        24.4820  -12.0370   16.2080 C.3    47  TYR47       0.0534
     16  CG        24.3550  -12.9930   17.3850 C.ar   47  TYR47      -0.0201
     17  CD1       24.7140  -12.5570   18.6630 C.ar   47  TYR47      -0.0009
     18  CD2       23.9080  -14.2960   17.2330 C.ar   47  TYR47      -0.0009
     19  CE1       24.6190  -13.4160   19.7400 C.ar   47  TYR47       0.0417
     20  CE2       23.8200  -15.1620   18.3050 C.ar   47  TYR47       0.0417
     21  CZ        24.1880  -14.7030   19.5710 C.ar   47  TYR47       0.1957
     22  OH        24.0840  -15.5980   20.6140 O.3    47  TYR47      -0.2866
     23  N         25.9060  -16.8630   15.0120 N.3    50  TRP50      -0.1241
     24  CA        25.0590  -17.2840   13.9000 C.3    50  TRP50       0.1605
     25  C         25.5240  -16.7060   12.5790 C.2    50  TRP50       0.2264
     26  O         24.7660  -16.6490   11.5960 O.2    50  TRP50      -0.2867
     27  CB        23.5980  -16.9080   14.1860 C.3    50  TRP50       0.0550
     28  CG        23.0610  -17.6460   15.3840 C.ar   50  TRP50       0.0003
     29  CD1       23.6960  -18.6010   16.1240 C.ar   50  TRP50       0.0946
     30  CD2       21.7560  -17.5020   15.9500 C.ar   50  TRP50       0.0152
     31  NE1       22.8690  -19.0470   17.1250 N.ar   50  TRP50      -0.2442
     32  CE2       21.6700  -18.3850   17.0370 C.ar   50  TRP50       0.0810
     33  CE3       20.6520  -16.6990   15.6380 C.ar   50  TRP50       0.0012
     34  CZ2       20.5230  -18.4960   17.8230 C.ar   50  TRP50       0.0191
     35  CZ3       19.5150  -16.8110   16.4200 C.ar   50  TRP50       0.0001
     36  CH2       19.4610  -17.7030   17.5000 C.ar   50  TRP50       0.0015
     37  N         26.0510  -13.7390   11.6400 N.3    52  LYS52      -0.1245
     38  CA        25.3500  -12.5060   11.2550 C.3    52  LYS52       0.1561
     39  C         26.3340  -11.3520   11.3240 C.2    52  LYS52       0.2260
     40  O         26.9360  -11.0340   12.3600 O.2    52  LYS52      -0.2867
     41  CB        24.1540  -12.2610   12.1680 C.3    52  LYS52       0.0271
     42  CG        23.3360  -11.0440   11.7690 C.3    52  LYS52       0.0035
     43  CD        22.3620  -10.5800   12.8390 C.3    52  LYS52       0.0206
     44  CE        21.1940  -11.5280   13.0280 C.3    52  LYS52       0.1093
     45  NZ        20.2270  -11.0580   14.0700 N.3    52  LYS52      -0.1314
     46  N         28.4680   -9.8720   22.6450 N.3    92  TRP92      -0.1241
     47  CA        27.7720  -10.9090   21.9000 C.3    92  TRP92       0.1605
     48  C         28.1820  -12.3110   22.3630 C.2    92  TRP92       0.2264
     49  O         27.5270  -13.2890   22.0130 O.2    92  TRP92      -0.2867
     50  CB        28.0130  -10.7910   20.4040 C.3    92  TRP92       0.0550
     51  CG        29.4430  -10.7240   19.9730 C.ar   92  TRP92       0.0003
     52  CD1       30.1530   -9.5910   19.7240 C.ar   92  TRP92       0.0946
     53  CD2       30.3560  -11.8140   19.7320 C.ar   92  TRP92       0.0152
     54  NE1       31.4480   -9.8800   19.3440 N.ar   92  TRP92      -0.2442
     55  CE2       31.5750  -11.2420   19.3450 C.ar   92  TRP92       0.0810
     56  CE3       30.2370  -13.2010   19.8010 C.ar   92  TRP92       0.0012
     57  CZ2       32.6960  -12.0290   19.0210 C.ar   92  TRP92       0.0191
     58  CZ3       31.3450  -13.9910   19.4760 C.ar   92  TRP92       0.0001
     59  CH2       32.5390  -13.3840   19.1010 C.ar   92  TRP92       0.0015
     60  N         28.3910  -13.5390   25.4730 N.3    94  GLU94      -0.1231
     61  CA        27.6900  -14.0240   26.6380 C.3    94  GLU94       0.1699
     62  C         26.2190  -13.6750   26.7680 C.2    94  GLU94       0.2592
     63  O         25.3740  -14.5790   26.7050 O.2    94  GLU94      -0.2718
     64  CB        28.4100  -13.5220   27.9150 C.3    94  GLU94       0.0402
     65  CG        27.9920  -14.2810   29.1620 C.3    94  GLU94       0.1161
     66  CD        28.7090  -13.8330   30.4200 C.2    94  GLU94       0.3649
     67  OE1       29.5710  -12.9360   30.3600 O.co2  94  GLU94      -0.2457
     68  OE2       28.3870  -14.3990   31.4910 O.co2  94  GLU94      -0.2457
     69  N         25.9000  -12.4050   27.0410 N.am   95  ASN95      -0.1960
     70  CA        24.5400  -12.0710   27.4490 C.3    95  ASN95       0.1819
     71  C         23.9820  -10.8830   26.7080 C.2    95  ASN95       0.2621
     72  O         22.9590  -10.3360   27.1510 O.2    95  ASN95      -0.2715
     73  CB        24.5300  -11.7430   28.9560 C.3    95  ASN95       0.1195
     74  CG        25.5370  -10.6900   29.3220 C.2    95  ASN95       0.2630
     75  OD1       26.2710  -10.1490   28.4890 O.2    95  ASN95      -0.2716
     76  ND2       25.6150  -10.3370   30.6020 N.am   95  ASN95      -0.0877
     77  N         24.5910  -10.4220   25.6250 N.am   96  LEU96      -0.1977
     78  CA        24.1240   -9.2670   24.8700 C.3    96  LEU96       0.1596
     79  C         24.1610   -7.9950   25.6900 C.2    96  LEU96       0.2287
     80  O         23.3910   -7.0460   25.4420 O.2    96  LEU96      -0.2864
     81  CB        22.7200   -9.4780   24.3150 C.3    96  LEU96       0.0297
     82  CG        22.5820   -9.9050   22.8630 C.3    96  LEU96       0.0022
     83  CD1       23.6370  -10.8700   22.3670 C.3    96  LEU96       0.0001
     84  CD2       21.1760  -10.4920   22.6720 C.3    96  LEU96       0.0001
     85  N          4.9380  -17.2510   19.3060 N.3   146  GLU146     -0.1245
     86  CA         6.2770  -17.8340   19.3290 C.3   146  GLU146      0.1567
     87  C          6.4190  -18.8960   18.2370 C.2   146  GLU146      0.2260
     88  O          7.4620  -19.0090   17.5980 O.2   146  GLU146     -0.2867
     89  CB         6.6060  -18.4570   20.6860 C.3   146  GLU146      0.0388
     90  CG         7.9940  -19.0720   20.7530 C.3   146  GLU146      0.1160
     91  CD         8.3700  -19.6040   22.1150 C.2   146  GLU146      0.3649
     92  OE1        7.8830  -19.0990   23.1420 O.co2 146  GLU146     -0.2457
     93  OE2        9.1860  -20.5630   22.1540 O.co2 146  GLU146     -0.2457
     94  N         15.5740  -16.0130   34.9240 N.3   170  THR170     -0.1203
     95  CA        16.4510  -16.4350   33.8380 C.3   170  THR170      0.1994
     96  C         17.7610  -16.9890   34.3500 C.2   170  THR170      0.2618
     97  O         18.1260  -16.6780   35.4790 O.2   170  THR170     -0.2717
     98  CB        16.7100  -15.1950   32.9380 C.3   170  THR170      0.1784
     99  OG1       17.4850  -15.5930   31.7960 O.3   170  THR170     -0.2211
    100  CG2       17.4290  -14.0650   33.6340 C.3   170  THR170      0.0376
    101  N         18.4560  -17.7450   33.4990 N.am  171  ARG171     -0.1965
    102  CA        19.8090  -18.1660   33.8300 C.3   171  ARG171      0.1729
    103  C         20.8690  -17.2310   33.2530 C.2   171  ARG171      0.2616
    104  O         22.0270  -17.2770   33.6690 O.2   171  ARG171     -0.2715
    105  CB        20.0500  -19.6000   33.3260 C.3   171  ARG171      0.0348
    106  CG        19.1450  -20.6050   34.0310 C.3   171  ARG171      0.0492
    107  CD        19.3100  -22.0380   33.5350 C.3   171  ARG171      0.2205
    108  NE        20.6280  -22.5690   33.8580 N.pl3 171  ARG171     -0.0865
    109  CZ        20.9580  -23.8610   33.7440 C.cat 171  ARG171      0.5346
    110  NH1       20.0520  -24.7180   33.3060 N.pl3 171  ARG171      0.1354
    111  NH2       22.1840  -24.2200   34.0690 N.pl3 171  ARG171      0.1354
    112  N         20.4380  -16.3100   32.3830 N.am  172  ILE172     -0.1977
    113  CA        21.3500  -15.3250   31.7920 C.3   172  ILE172      0.1596
    114  C         21.8180  -14.3700   32.8770 C.2   172  ILE172      0.2287
    115  O         21.0280  -13.9460   33.7480 O.2   172  ILE172     -0.2864
    116  CB        20.6470  -14.5250   30.6770 C.3   172  ILE172      0.0276
    117  CG1       20.1020  -15.4020   29.5440 C.3   172  ILE172      0.0022
    118  CG2       21.5540  -13.4490   30.0770 C.3   172  ILE172      0.0022
    119  CD1       21.1650  -16.1120   28.7340 C.3   172  ILE172      0.0001
    120  N          4.2700   -9.4340   24.7050 N.3   192  ASP192     -0.1225
    121  CA         5.7270   -9.5010   24.6320 C.3   192  ASP192      0.1805
    122  C          6.1920   -9.1580   23.2240 C.2   192  ASP192      0.2598
    123  O          5.4490   -9.2530   22.2410 O.2   192  ASP192     -0.2718
    124  CB         6.2250  -10.9100   24.9760 C.3   192  ASP192      0.1424
    125  CG         7.6910  -11.0350   25.2740 C.2   192  ASP192      0.3668
    126  OD1        8.4180  -10.0280   25.4500 O.co2 192  ASP192     -0.2456
    127  OD2        8.1850  -12.2020   25.3660 O.co2 192  ASP192     -0.2456
    128  N          7.4630   -8.7880   23.1040 N.am  193  ALA193     -0.1966
    129  CA         8.1330   -8.7460   21.8210 C.3   193  ALA193      0.1728
    130  C          8.3600  -10.1790   21.3330 C.2   193  ALA193      0.2616
    131  O          8.2960  -11.1360   22.1150 O.2   193  ALA193     -0.2715
    132  CB         9.4610   -8.0070   21.9760 C.3   193  ALA193      0.0334
    133  N          8.5710  -10.3220   20.0310 N.am  194  CYS194     -0.1954
    134  CA         8.8740  -11.6390   19.4720 C.3   194  CYS194      0.1843
    135  C          9.8150  -11.4920   18.2970 C.2   194  CYS194      0.2625
    136  O         10.3220  -10.3930   18.0190 O.2   194  CYS194     -0.2714
    137  CB         7.6060  -12.3860   19.0700 C.3   194  CYS194      0.0997
    138  SG         7.7530  -14.1960   18.9860 S.3   194  CYS194     -0.0797
    139  N         10.0920  -12.5680   17.5610 N.am  195  GLU195     -0.1963
    140  CA        11.0540  -12.5370   16.4710 C.3   195  GLU195      0.1733
    141  C         10.7100  -11.4860   15.4270 C.2   195  GLU195      0.2616
    142  O          9.5840  -11.5150   14.9440 O.2   195  GLU195     -0.2715
    143  CB        11.1800  -13.9320   15.8300 C.3   195  GLU195      0.0429
    144  CG        11.6000  -14.9860   16.8570 C.3   195  GLU195      0.1163
    145  CD        12.0690  -16.2540   16.1600 C.2   195  GLU195      0.3649
    146  OE1       13.1330  -16.2120   15.5070 O.co2 195  GLU195     -0.2457
    147  OE2       11.3740  -17.2860   16.2630 O.co2 195  GLU195     -0.2457
    148  N         11.6690  -10.6310   15.0990 N.am  196  GLY196     -0.1955
    149  CA        11.4340   -9.5430   14.1530 C.3   196  GLY196      0.1869
    150  C         11.2820   -8.2020   14.8970 C.2   196  GLY196      0.2309
    151  O         11.3530   -7.1730   14.2220 O.2   196  GLY196     -0.2863
    152  N         13.1480   -7.2270   17.6310 N.3   198  SER198     -0.1217
    153  CA        14.3840   -6.7420   18.2070 C.3   198  SER198      0.1889
    154  C         14.8680   -5.4800   17.5310 C.2   198  SER198      0.2288
    155  O         14.6630   -5.2790   16.3150 O.2   198  SER198     -0.2866
    156  CB        15.5320   -7.7580   18.1190 C.3   198  SER198      0.2089
    157  OG        15.1960   -8.8110   18.9980 O.3   198  SER198     -0.2183
    158  N         14.3960   -3.1930   22.2880 N.3   218  VAL218     -0.1231
    159  CA        14.0960   -4.6410   22.3600 C.3   218  VAL218      0.1692
    160  C         15.3820   -5.4250   22.1330 C.2   218  VAL218      0.2593
    161  O         16.0190   -5.2810   21.0880 O.2   218  VAL218     -0.2718
    162  CB        13.0550   -5.0320   21.3100 C.3   218  VAL218      0.0266
    163  CG1       12.7540   -6.5270   21.3710 C.3   218  VAL218      0.0020
    164  CG2       11.7490   -4.2630   21.4520 C.3   218  VAL218      0.0020
    165  N         15.8260   -6.1830   23.1360 N.am  219  SER219     -0.1938
    166  CA        17.0970   -6.8880   23.0560 C.3   219  SER219      0.2055
    167  C         17.0000   -8.3970   23.0360 C.2   219  SER219      0.2643
    168  O         17.5400   -9.0070   22.0950 O.2   219  SER219     -0.2714
    169  CB        17.9840   -6.4020   24.2250 C.3   219  SER219      0.2130
    170  OG        19.2350   -7.0640   24.2120 O.3   219  SER219     -0.2179
    171  N         16.3180   -9.0310   23.9780 N.am  220  TRP220     -0.1959
    172  CA        16.2500  -10.4900   23.9820 C.3   220  TRP220      0.1771
    173  C         15.1510  -10.9960   24.8910 C.2   220  TRP220      0.2620
    174  O         14.6250  -10.2960   25.7480 O.2   220  TRP220     -0.2715
    175  CB        17.5890  -11.1200   24.4040 C.3   220  TRP220      0.0590
    176  CG        18.0890  -10.8400   25.7810 C.ar  220  TRP220      0.0006
    177  CD1       18.9020   -9.8210   26.1670 C.ar  220  TRP220      0.0946
    178  CD2       17.8520  -11.5980   26.9930 C.ar  220  TRP220      0.0152
    179  NE1       19.1780   -9.8540   27.5020 N.ar  220  TRP220     -0.2442
    180  CE2       18.5370  -10.9550   28.0380 C.ar  220  TRP220      0.0810
    181  CE3       17.1060  -12.7520   27.2670 C.ar  220  TRP220      0.0012
    182  CZ2       18.5170  -11.4240   29.3560 C.ar  220  TRP220      0.0191
    183  CZ3       17.0950  -13.2190   28.5710 C.ar  220  TRP220      0.0001
    184  CH2       17.7820  -12.5550   29.5890 C.ar  220  TRP220      0.0015
    185  N         14.7650  -12.2460   24.6280 N.am  221  GLY221     -0.1940
    186  CA        13.7590  -12.9140   25.4470 C.3   221  GLY221      0.2014
    187  C         13.9210  -14.4370   25.3000 C.2   221  GLY221      0.2639
    188  O         14.3870  -14.9000   24.2710 O.2   221  GLY221     -0.2714
    189  N         13.4490  -15.1670   26.2980 N.am  222  GLU222     -0.1963
    190  CA        13.4710  -16.6420   26.2250 C.3   222  GLU222      0.1733
    191  C         12.1060  -17.0840   25.7130 C.2   222  GLU222      0.2617
    192  O         11.1590  -17.2090   26.4960 O.2   222  GLU222     -0.2715
    193  CB        13.7670  -17.1830   27.6280 C.3   222  GLU222      0.0429
    194  CG        13.8090  -18.7090   27.6380 C.3   222  GLU222      0.1163
    195  CD        14.2730  -19.3090   28.9420 C.2   222  GLU222      0.3649
    196  OE1       14.5090  -18.5940   29.9370 O.co2 222  GLU222     -0.2457
    197  OE2       14.4150  -20.5560   28.9620 O.co2 222  GLU222     -0.2457
    198  N         11.9760  -17.2020   24.3980 N.am  223  GLY223     -0.1940
    199  CA        10.6650  -17.4620   23.8070 C.3   223  GLY223      0.2014
    200  C          9.8890  -16.1370   23.7720 C.2   223  GLY223      0.2639
    201  O         10.5080  -15.0700   23.8820 O.2   223  GLY223     -0.2714
    202  N          8.6150  -16.2100   23.4530 N.am  224  CYS224     -0.1967
    203  CA         7.7640  -15.0350   23.3650 C.3   224  CYS224      0.1712
    204  C          6.5060  -15.2460   24.1970 C.2   224  CYS224      0.2296
    205  O          5.8070  -16.2480   24.0270 O.2   224  CYS224     -0.2864
    206  CB         7.3400  -14.7560   21.9250 C.3   224  CYS224      0.0983
    207  SG         8.6760  -14.7950   20.7280 S.3   224  CYS224     -0.0798
    208  N          6.0130  -16.1720   27.2420 N.3   226  ARG226     -0.1245
    209  CA         5.8940  -17.3500   28.1150 C.3   226  ARG226      0.1563
    210  C          5.6200  -16.8970   29.5340 C.2   226  ARG226      0.2260
    211  O          6.1660  -15.9070   30.0400 O.2   226  ARG226     -0.2867
    212  CB         7.1710  -18.1860   28.1100 C.3   226  ARG226      0.0307
    213  CG         7.4750  -18.8260   26.7760 C.3   226  ARG226      0.0489
    214  CD         8.6740  -19.7610   26.9090 C.3   226  ARG226      0.2205
    215  NE         9.1360  -20.1540   25.5780 N.pl3 226  ARG226     -0.0865
    216  CZ        10.2910  -20.7910   25.3940 C.cat 226  ARG226      0.5346
    217  NH1       11.0460  -21.0980   26.4450 N.pl3 226  ARG226      0.1354
    218  NH2       10.6720  -21.1110   24.1680 N.pl3 226  ARG226      0.1354
@<TRIPOS>BOND
     1    38    39    1
     2    38    37    1
     3    38    41    1
     4    39    40    2
     5    26    25    2
     6    42    41    1
     7    42    43    1
     8    25    24    1
     9    43    44    1
    10    44    45    1
    11    24    27    1
    12    24    23    1
    13   149   150    1
    14   149   148    1
    15    27    28    1
    16   151   150    2
    17    14    13    2
    18   142   141    2
    19    11    12    1
    20   148   141   am
    21    28    30   ar
    22    28    29   ar
    23    13    12    1
    24   141   140    1
    25   146   145   ar
    26    33    30   ar
    27    33    35   ar
    28     4     3    2
    29   143   140    1
    30   143   144    1
    31    30    32   ar
    32    12    15    1
    33    29    31   ar
    34   145   147   ar
    35   145   144    1
    36    15    16    1
    37   155   154    2
    38     3     2    1
    39    35    36   ar
    40   140   139    1
    41    32    31   ar
    42    32    34   ar
    43    18    16   ar
    44    18    20   ar
    45    16    17   ar
    46    36    34   ar
    47   154   153    1
    48   139   135   am
    49    88    87    2
    50   152   153    1
    51     2     1    1
    52     2     5    1
    53   136   135    2
    54   156   153    1
    55   156   157    1
    56     8    10   ar
    57     8     6   ar
    58    87    86    1
    59   135   134    1
    60    20    21   ar
    61    10     9   ar
    62    17    19   ar
    63     5     6    1
    64     6     7   ar
    65   138   137    1
    66   138   207    1
    67    57    59   ar
    68    57    55   ar
    69   137   134    1
    70    59    58   ar
    71    85    86    1
    72    86    89    1
    73    54    55   ar
    74    54    52   ar
    75    55    53   ar
    76   134   133    1
    77    58    56   ar
    78     9     7   ar
    79    21    19   ar
    80    21    22    1
    81    52    51   ar
    82    53    56   ar
    83    53    51   ar
    84    51    50    1
    85   133   130   am
    86    50    47    1
    87    89    90    1
    88   207   206    1
    89    90    91    1
    90   161   160    2
    91   162   163    1
    92   162   164    1
    93   162   159    1
    94   130   129    1
    95   130   131    2
    96   129   132    1
    97   129   128    1
    98    47    48    1
    99    47    46    1
   100   206   203    1
   101    49    48    2
   102   168   167    2
   103    91    93   ar
   104    91    92   ar
   105   160   159    1
   106   160   165   am
   107   123   122    2
   108   158   159    1
   109    83    82    1
   110    84    82    1
   111    82    81    1
   112   167   166    1
   113   167   171   am
   114   166   165    1
   115   166   169    1
   116   128   122   am
   117   122   121    1
   118   203   202    1
   119   203   204    1
   120   202   200   am
   121   200   199    1
   122   200   201    2
   123   199   198    1
   124   171   172    1
   125   172   175    1
   126   172   173    1
   127   205   204    2
   128   218   216    1
   129   170   169    1
   130   188   187    2
   131    81    78    1
   132   198   191   am
   133   175   176    1
   134   185   173   am
   135   185   186    1
   136   121   120    1
   137   121   124    1
   138    78    77    1
   139    78    79    1
   140   173   174    2
   141   124   125    1
   142   125   127   ar
   143   125   126   ar
   144   187   186    1
   145   187   189   am
   146   216   215    2
   147   216   217    1
   148    80    79    2
   149    60    61    1
   150   215   214    1
   151    77    71   am
   152   191   190    1
   153   191   192    2
   154   176   177   ar
   155   176   178   ar
   156   177   179   ar
   157   190   189    1
   158   190   193    1
   159    61    62    1
   160    61    64    1
   161    63    62    2
   162    71    72    2
   163    71    70    1
   164    62    69   am
   165   213   214    1
   166   213   212    1
   167   178   181   ar
   168   178   180   ar
   169    69    70    1
   170   208   209    1
   171   181   183   ar
   172    70    73    1
   173   179   180   ar
   174   193   194    1
   175   194   195    1
   176    64    65    1
   177   180   182   ar
   178   212   209    1
   179   209   210    1
   180    75    74    2
   181   183   184   ar
   182   119   117    1
   183   195   197   ar
   184   195   196   ar
   185    73    74    1
   186    65    66    1
   187    74    76   am
   188   182   184   ar
   189   210   211    2
   190   117   116    1
   191   118   116    1
   192    67    66   ar
   193    66    68   ar
   194   116   113    1
   195   113   112    1
   196   113   114    1
   197    99    98    1
   198   112   103   am
   199   114   115    2
   200    98   100    1
   201    98    95    1
   202   103   104    2
   203   103   102    1
   204   110   109    1
   205   105   102    1
   206   105   106    1
   207   101   102    1
   208   101    96   am
   209   107   108    1
   210   107   106    1
   211   109   108    2
   212   109   111    1
   213    95    96    1
   214    95    94    1
   215    96    97    2
