@<TRIPOS>MOLECULE
tmp/1h8fB01.pdb
 107 103 0 0 0
SMALL
GASTEIGER

@<TRIPOS>ATOM
      1  N         13.9700  -13.8720   18.7970 N.3    33  PHE33      -0.1241
      2  CA        12.6350  -14.4230   18.6890 C.3    33  PHE33       0.1605
      3  C         12.5180  -15.9470   18.6600 C.2    33  PHE33       0.2264
      4  O         11.4090  -16.4850   18.7050 O.2    33  PHE33      -0.2867
      5  CB        11.9110  -13.7770   17.4940 C.3    33  PHE33       0.0534
      6  CG        11.4440  -12.3600   17.7690 C.ar   33  PHE33      -0.0203
      7  CD1       12.3630  -11.3290   17.9800 C.ar   33  PHE33      -0.0042
      8  CD2       10.0790  -12.0670   17.8610 C.ar   33  PHE33      -0.0042
      9  CE1       11.9290  -10.0330   18.2910 C.ar   33  PHE33      -0.0003
     10  CE2        9.6370  -10.7690   18.1730 C.ar   33  PHE33      -0.0003
     11  CZ        10.5650   -9.7520   18.3840 C.ar   33  PHE33      -0.0000
     12  N          4.5020  -10.6730   10.1250 N.3    62  ARG62      -0.1245
     13  CA         5.0900   -9.7200    9.1910 C.3    62  ARG62       0.1563
     14  C          6.2880  -10.2350    8.3870 C.2    62  ARG62       0.2260
     15  O          6.4190   -9.9320    7.1990 O.2    62  ARG62      -0.2867
     16  CB         5.4840   -8.4530    9.9500 C.3    62  ARG62       0.0307
     17  CG         6.1620   -7.4160    9.0970 C.3    62  ARG62       0.0489
     18  CD         6.5680   -6.2190    9.9230 C.3    62  ARG62       0.2205
     19  NE         5.4590   -5.3060   10.1590 N.pl3  62  ARG62      -0.0865
     20  CZ         5.4420   -4.3900   11.1240 C.cat  62  ARG62       0.5346
     21  NH1        6.4750   -4.2840   11.9350 N.pl3  62  ARG62       0.1354
     22  NH2        4.4000   -3.5780   11.2780 N.pl3  62  ARG62       0.1354
     23  N         15.9040   -2.5350    7.4130 N.3   146  ARG146     -0.1245
     24  CA        16.0820   -1.8970    8.7130 C.3   146  ARG146      0.1563
     25  C         17.1120   -2.4920    9.6880 C.2   146  ARG146      0.2260
     26  O         17.2030   -2.0570   10.8410 O.2   146  ARG146     -0.2867
     27  CB        14.7190   -1.7690    9.3890 C.3   146  ARG146      0.0307
     28  CG        13.7760   -0.8860    8.5810 C.3   146  ARG146      0.0489
     29  CD        12.6640   -0.3370    9.4260 C.3   146  ARG146      0.2205
     30  NE        11.9530   -1.3960   10.1150 N.pl3 146  ARG146     -0.0865
     31  CZ        10.9690   -1.1670   10.9700 C.cat 146  ARG146      0.5346
     32  NH1       10.6270    0.0940   11.2070 N.pl3 146  ARG146      0.1354
     33  NH2       10.3350   -2.1850   11.5700 N.pl3 146  ARG146      0.1354
     34  N         17.6950  -12.5150    7.4520 N.3   166  ASP166     -0.1239
     35  CA        17.1080  -11.9260    8.6400 C.3   166  ASP166      0.1674
     36  C         16.1860  -10.7280    8.3570 C.2   166  ASP166      0.2266
     37  O         16.5770   -9.5660    8.5230 O.2   166  ASP166     -0.2867
     38  CB        18.1970  -11.4990    9.6280 C.3   166  ASP166      0.1410
     39  CG        17.6670  -11.3680   11.0510 C.2   166  ASP166      0.3668
     40  OD1       16.5330  -10.8640   11.2210 O.co2 166  ASP166     -0.2456
     41  OD2       18.3810  -11.7600   12.0070 O.co2 166  ASP166     -0.2456
     42  N         13.5220  -10.1310   10.0380 N.3   168  GLY168     -0.1210
     43  CA        12.7490   -9.9260   11.2460 C.3   168  GLY168      0.1956
     44  C         12.4780   -8.4750   11.6210 C.2   168  GLY168      0.2613
     45  O         11.5930   -8.2000   12.4350 O.2   168  GLY168     -0.2717
     46  N         13.2190   -7.5370   11.0430 N.am  169  SER169     -0.1938
     47  CA        13.0000   -6.1300   11.3470 C.3   169  SER169      0.2055
     48  C         12.4470   -5.3970   10.1400 C.2   169  SER169      0.2643
     49  O         12.1690   -4.1960   10.2210 O.2   169  SER169     -0.2714
     50  CB        14.3020   -5.4490   11.7760 C.3   169  SER169      0.2130
     51  OG        14.7190   -5.9010   13.0540 O.3   169  SER169     -0.2179
     52  N         12.2850   -6.1140    9.0270 N.am  170  ALA170     -0.1963
     53  CA        11.7980   -5.5040    7.7940 C.3   170  ALA170      0.1728
     54  C         10.3470   -5.0480    7.8670 C.2   170  ALA170      0.2616
     55  O          9.5220   -5.6270    8.5820 O.2   170  ALA170     -0.2715
     56  CB        11.9850   -6.4580    6.6340 C.3   170  ALA170      0.0334
     57  N         10.0420   -4.0030    7.1070 N.am  171  LYS171     -0.1977
     58  CA         8.7040   -3.4450    7.1020 C.3   171  LYS171      0.1596
     59  C          8.3780   -2.6370    5.8450 C.2   171  LYS171      0.2287
     60  O          9.2470   -1.9900    5.2560 O.2   171  LYS171     -0.2864
     61  CB         8.5430   -2.5400    8.3180 C.3   171  LYS171      0.0298
     62  CG         7.1610   -1.9660    8.4580 C.3   171  LYS171      0.0038
     63  CD         7.1490   -0.7930    9.4040 C.3   171  LYS171      0.0206
     64  CE         5.7450   -0.1940    9.5230 C.3   171  LYS171      0.1093
     65  NZ         5.7610    1.0480   10.3530 N.3   171  LYS171     -0.1314
     66  N          4.1060    6.5030   10.9140 N.3   178  PRO178     -0.2102
     67  CA         5.2370    6.4410   11.8430 C.3   178  PRO178      0.1504
     68  C          5.9000    5.0730   11.9280 C.2   178  PRO178      0.2576
     69  O          5.2320    4.0390   11.9090 O.2   178  PRO178     -0.2718
     70  CB         4.6090    6.8360   13.1810 C.3   178  PRO178      0.0282
     71  CG         3.4730    7.6790   12.7900 C.3   178  PRO178      0.0208
     72  CD         2.8910    6.9290   11.6260 C.3   178  PRO178      0.0893
     73  N          7.2200    5.0890   12.0460 N.am  179  ASN179     -0.1961
     74  CA         8.0010    3.8730   12.1680 C.3   179  ASN179      0.1819
     75  C          8.8590    3.9810   13.4310 C.2   179  ASN179      0.2621
     76  O          9.3740    5.0610   13.7310 O.2   179  ASN179     -0.2715
     77  CB         8.8660    3.7190   10.9270 C.3   179  ASN179      0.1195
     78  CG         8.0430    3.7210    9.6610 C.2   179  ASN179      0.2630
     79  OD1        7.1510    2.8830    9.4890 O.2   179  ASN179     -0.2716
     80  ND2        8.3300    4.6620    8.7630 N.am  179  ASN179     -0.0877
     81  N          8.9970    2.8800   14.1770 N.am  180  VAL180     -0.1977
     82  CA         9.7990    2.8920   15.4050 C.3   180  VAL180      0.1596
     83  C         11.2500    3.2540   15.0940 C.2   180  VAL180      0.2287
     84  O         11.7650    2.9310   14.0190 O.2   180  VAL180     -0.2864
     85  CB         9.7560    1.5240   16.1330 C.3   180  VAL180      0.0276
     86  CG1        8.3070    1.1320   16.3990 C.3   180  VAL180      0.0022
     87  CG2       10.4760    0.4550   15.3220 C.3   180  VAL180      0.0022
     88  N         13.8710    2.4360   17.1360 N.3   182  TYR182     -0.1227
     89  CA        14.7670    1.5660   17.8590 C.3   182  TYR182      0.1736
     90  C         15.1620    0.3070   17.0940 C.2   182  TYR182      0.2595
     91  O         15.4540   -0.7180   17.7070 O.2   182  TYR182     -0.2718
     92  CB        14.1810    1.2150   19.2360 C.3   182  TYR182      0.0548
     93  CG        12.7920    0.6390   19.2150 C.ar  182  TYR182     -0.0200
     94  CD1       12.5770   -0.6960   18.8880 C.ar  182  TYR182     -0.0009
     95  CD2       11.6830    1.4280   19.5360 C.ar  182  TYR182     -0.0009
     96  CE1       11.2850   -1.2370   18.8870 C.ar  182  TYR182      0.0417
     97  CE2       10.3890    0.9030   19.5310 C.ar  182  TYR182      0.0417
     98  CZ        10.1920   -0.4280   19.2090 C.ar  182  TYR182      0.1957
     99  OH         8.9070   -0.9550   19.2040 O.3   182  TYR182     -0.2866
    100  N         15.1710    0.3670   15.7600 N.am  183  ILE183     -0.1980
    101  CA        15.6080   -0.7960   14.9790 C.3   183  ILE183      0.1595
    102  C         17.0200   -0.5280   14.4600 C.2   183  ILE183      0.2287
    103  O         17.5460    0.5790   14.6180 O.2   183  ILE183     -0.2864
    104  CB        14.6530   -1.1570   13.7390 C.3   183  ILE183      0.0276
    105  CG1       14.7400   -0.1160   12.6010 C.3   183  ILE183      0.0022
    106  CG2       13.2540   -1.4080   14.2170 C.3   183  ILE183      0.0022
    107  CD1       14.4820    1.2910   12.9800 C.3   183  ILE183      0.0001
@<TRIPOS>BOND
     1    60    59    2
     2    59    58    1
     3    56    53    1
     4    58    57    1
     5    58    61    1
     6    57    54   am
     7    15    14    2
     8    23    24    1
     9    34    35    1
    10    53    54    1
    11    53    52    1
    12    54    55    2
    13    61    62    1
    14    36    37    2
    15    36    35    1
    16    14    13    1
    17    62    63    1
    18    28    27    1
    19    28    29    1
    20    35    38    1
    21    24    27    1
    22    24    25    1
    23    80    78   am
    24    52    48   am
    25    17    18    1
    26    17    16    1
    27    13    16    1
    28    13    12    1
    29    63    64    1
    30    29    30    1
    31    79    78    2
    32    64    65    1
    33    38    39    1
    34    78    77    1
    35    25    26    2
    36    18    19    1
    37    42    43    1
    38    30    31    2
    39    48    49    2
    40    48    47    1
    41    19    20    2
    42    66    72    1
    43    66    67    1
    44    77    74    1
    45    31    32    1
    46    31    33    1
    47    46    47    1
    48    46    44   am
    49    39    40   ar
    50    39    41   ar
    51    20    22    1
    52    20    21    1
    53    43    44    1
    54    47    50    1
    55    44    45    2
    56    72    71    1
    57    50    51    1
    58    67    68    1
    59    67    70    1
    60    69    68    2
    61    68    73   am
    62    73    74    1
    63    74    75    1
    64   105   107    1
    65   105   104    1
    66    71    70    1
    67    75    76    2
    68    75    81   am
    69   104   106    1
    70   104   101    1
    71    84    83    2
    72    81    82    1
    73   102   103    2
    74   102   101    1
    75   101   100    1
    76    83    82    1
    77    87    85    1
    78    82    85    1
    79   100    90   am
    80    85    86    1
    81    90    91    2
    82    90    89    1
    83    88    89    1
    84     5     6    1
    85     5     2    1
    86     6     8   ar
    87     6     7   ar
    88    89    92    1
    89     8    10   ar
    90     7     9   ar
    91    10    11   ar
    92     9    11   ar
    93     3     2    1
    94     3     4    2
    95     2     1    1
    96    96    94   ar
    97    96    98   ar
    98    94    93   ar
    99    99    98    1
   100    98    97   ar
   101    93    92    1
   102    93    95   ar
   103    97    95   ar
