@<TRIPOS>MOLECULE
tmp/1h8hF01.pdb
 178 172 0 0 0
SMALL
GASTEIGER

@<TRIPOS>ATOM
      1  N        108.7600   81.3480   93.9950 N.3   150  ALA150     -0.1231
      2  CA       109.1020   82.6230   94.5900 C.3   150  ALA150      0.1694
      3  C        107.9560   83.2750   95.3370 C.2   150  ALA150      0.2593
      4  O        106.8710   83.4090   94.7790 O.2   150  ALA150     -0.2718
      5  CB       109.6320   83.5900   93.5520 C.3   150  ALA150      0.0304
      6  N        108.1600   83.5880   96.6180 N.am  151  GLY151     -0.1942
      7  CA       107.1640   84.2210   97.4250 C.3   151  GLY151      0.2014
      8  C        105.9020   83.4860   97.8020 C.2   151  GLY151      0.2639
      9  O        104.9670   84.0640   98.3860 O.2   151  GLY151     -0.2714
     10  N        105.8700   82.1770   97.6650 N.am  152  VAL152     -0.1963
     11  CA       104.6780   81.4110   97.9970 C.3   152  VAL152      0.1727
     12  C        104.4870   80.9790   99.4210 C.2   152  VAL152      0.2617
     13  O        103.3180   80.7570   99.8300 O.2   152  VAL152     -0.2715
     14  CB       104.5220   80.2490   97.0120 C.3   152  VAL152      0.0290
     15  CG1      103.2540   79.4840   97.2710 C.3   152  VAL152      0.0023
     16  CG2      104.4880   80.8650   95.6060 C.3   152  VAL152      0.0023
     17  N        105.5120   80.9090  100.2610 N.am  153  GLY153     -0.1940
     18  CA       105.2650   80.6010  101.6620 C.3   153  GLY153      0.2014
     19  C        106.2630   79.7050  102.3450 C.2   153  GLY153      0.2639
     20  O        106.0870   79.4120  103.5540 O.2   153  GLY153     -0.2714
     21  N        107.3310   79.2800  101.6890 N.am  154  LYS154     -0.1963
     22  CA       108.2610   78.3990  102.3920 C.3   154  LYS154      0.1728
     23  C        108.7720   78.9270  103.7190 C.2   154  LYS154      0.2617
     24  O        108.7840   78.1640  104.6900 O.2   154  LYS154     -0.2715
     25  CB       109.4790   78.1350  101.4910 C.3   154  LYS154      0.0311
     26  CG       109.0420   77.8040  100.0780 C.3   154  LYS154      0.0038
     27  CD       110.2410   77.5340   99.1850 C.3   154  LYS154      0.0206
     28  CE       110.7620   78.8380   98.6200 C.3   154  LYS154      0.1093
     29  NZ       109.7910   79.5970   97.8000 N.3   154  LYS154     -0.1314
     30  N        109.3010   80.1680  103.6960 N.am  155  THR155     -0.1937
     31  CA       110.0010   80.6700  104.8780 C.3   155  THR155      0.2028
     32  C        109.0810   80.8730  106.0490 C.2   155  THR155      0.2642
     33  O        109.4640   80.4790  107.1590 O.2   155  THR155     -0.2714
     34  CB       110.9350   81.8140  104.5850 C.3   155  THR155      0.1808
     35  OG1      112.0230   81.3160  103.7770 O.3   155  THR155     -0.2208
     36  CG2      111.4750   82.4340  105.8590 C.3   155  THR155      0.0379
     37  N        107.8550   81.2890  105.8270 N.am  156  VAL156     -0.1963
     38  CA       106.9020   81.3960  106.9410 C.3   156  VAL156      0.1727
     39  C        106.5460   80.0040  107.4330 C.2   156  VAL156      0.2616
     40  O        106.4330   79.7620  108.6390 O.2   156  VAL156     -0.2715
     41  CB       105.6560   82.1630  106.4640 C.3   156  VAL156      0.0290
     42  CG1      104.5450   82.1970  107.4940 C.3   156  VAL156      0.0023
     43  CG2      105.9980   83.5690  106.0350 C.3   156  VAL156      0.0023
     44  N        106.3570   79.0420  106.5220 N.am  157  LEU157     -0.1977
     45  CA       106.0400   77.6650  106.9530 C.3   157  LEU157      0.1596
     46  C        107.1700   77.1480  107.8370 C.2   157  LEU157      0.2287
     47  O        106.8990   76.6780  108.9370 O.2   157  LEU157     -0.2864
     48  CB       105.7960   76.7460  105.7830 C.3   157  LEU157      0.0297
     49  CG       105.2140   75.3690  106.0300 C.3   157  LEU157      0.0022
     50  CD1      104.0320   75.4290  106.9790 C.3   157  LEU157      0.0001
     51  CD2      104.7700   74.7680  104.6930 C.3   157  LEU157      0.0001
     52  N        120.0260   82.2860  101.1080 N.3   180  GLU180     -0.1231
     53  CA       118.8250   83.0910  101.2450 C.3   180  GLU180      0.1699
     54  C        119.1650   84.4970  101.6930 C.2   180  GLU180      0.2592
     55  O        120.2830   84.9570  101.4740 O.2   180  GLU180     -0.2718
     56  CB       117.7600   82.4710  102.1130 C.3   180  GLU180      0.0402
     57  CG       117.0080   81.3220  101.4160 C.3   180  GLU180      0.1161
     58  CD       116.5580   81.7320  100.0340 C.2   180  GLU180      0.3649
     59  OE1      115.8460   82.7580   99.9410 O.co2 180  GLU180     -0.2457
     60  OE2      116.8860   81.0890   99.0230 O.co2 180  GLU180     -0.2457
     61  N        118.1460   85.1720  102.2130 N.am  181  ARG181     -0.1980
     62  CA       118.3380   86.5640  102.5830 C.3   181  ARG181      0.1597
     63  C        119.1330   86.7020  103.8720 C.2   181  ARG181      0.2287
     64  O        118.6720   86.1600  104.8830 O.2   181  ARG181     -0.2864
     65  CB       116.9750   87.2600  102.7250 C.3   181  ARG181      0.0334
     66  CG       116.0970   87.1980  101.4760 C.3   181  ARG181      0.0492
     67  CD       114.7210   87.7600  101.8510 C.3   181  ARG181      0.2205
     68  NE       113.9040   88.1030  100.6890 N.pl3 181  ARG181     -0.0865
     69  CZ       113.3670   87.1410   99.9430 C.cat 181  ARG181      0.5346
     70  NH1      113.6520   85.9120  100.3410 N.pl3 181  ARG181      0.1354
     71  NH2      112.6000   87.3320   98.8770 N.pl3 181  ARG181      0.1354
     72  N        117.2800   87.9690  106.6540 N.3   184  GLU184     -0.1245
     73  CA       116.3980   86.9530  107.2750 C.3   184  GLU184      0.1567
     74  C        117.1560   86.3730  108.4660 C.2   184  GLU184      0.2260
     75  O        116.6250   86.1490  109.5480 O.2   184  GLU184     -0.2867
     76  CB       115.8990   85.9120  106.2850 C.3   184  GLU184      0.0388
     77  CG       114.6210   86.2910  105.5590 C.3   184  GLU184      0.1160
     78  CD       114.1870   85.3760  104.4490 C.2   184  GLU184      0.3649
     79  OE1      113.1010   84.7560  104.5790 O.co2 184  GLU184     -0.2457
     80  OE2      114.8410   85.2190  103.4030 O.co2 184  GLU184     -0.2457
     81  N        117.2240   76.4440  105.0600 N.3   248  ASP248     -0.1225
     82  CA       116.5150   77.3210  104.1040 C.3   248  ASP248      0.1805
     83  C        117.6090   77.9560  103.2590 C.2   248  ASP248      0.2597
     84  O        118.4790   78.7190  103.7270 O.2   248  ASP248     -0.2718
     85  CB       115.6960   78.3500  104.8270 C.3   248  ASP248      0.1424
     86  CG       114.6620   79.1110  104.0500 C.2   248  ASP248      0.3668
     87  OD1      114.5930   79.0720  102.8040 O.co2 248  ASP248     -0.2456
     88  OD2      113.8300   79.8260  104.7100 O.co2 248  ASP248     -0.2456
     89  N        117.7410   77.5810  102.0270 N.am  249  ASN249     -0.1974
     90  CA       116.9250   76.7770  101.1860 C.3   249  ASN249      0.1688
     91  C        117.8590   75.7940  100.4610 C.2   249  ASN249      0.2292
     92  O        118.8400   76.2540   99.8840 O.2   249  ASN249     -0.2864
     93  CB       116.3550   77.7050  100.1040 C.3   249  ASN249      0.1181
     94  CG       115.2250   77.0190   99.3550 C.2   249  ASN249      0.2629
     95  OD1      115.5350   76.1130   98.5700 O.2   249  ASN249     -0.2716
     96  ND2      114.0010   77.4890   99.6210 N.am  249  ASN249     -0.0877
     97  N        113.1340   75.9290   97.1130 N.3   303  TYR303     -0.1241
     98  CA       112.7560   76.8490   96.0460 C.3   303  TYR303      0.1605
     99  C        112.4950   76.0750   94.7570 C.2   303  TYR303      0.2264
    100  O        113.2000   75.1070   94.4550 O.2   303  TYR303     -0.2867
    101  CB       113.9080   77.8550   95.8240 C.3   303  TYR303      0.0534
    102  CG       113.5970   78.8890   94.7600 C.ar  303  TYR303     -0.0201
    103  CD1      112.9040   80.0560   95.0730 C.ar  303  TYR303     -0.0009
    104  CD2      113.9750   78.7040   93.4490 C.ar  303  TYR303     -0.0009
    105  CE1      112.6010   81.0080   94.1240 C.ar  303  TYR303      0.0417
    106  CE2      113.6420   79.6160   92.4820 C.ar  303  TYR303      0.0417
    107  CZ       112.9580   80.7690   92.8170 C.ar  303  TYR303      0.1957
    108  OH       112.6800   81.6630   91.8060 O.3   303  TYR303     -0.2866
    109  N         96.1290   80.0740  102.8680 N.3   337  TYR337     -0.1228
    110  CA        97.3970   79.9300  103.5430 C.3   337  TYR337      0.1721
    111  C         97.2400   79.0070  104.7400 C.2   337  TYR337      0.2437
    112  O         96.2770   79.0450  105.4880 O.2   337  TYR337     -0.2733
    113  CB        97.9020   81.3090  104.0140 C.3   337  TYR337      0.0547
    114  CG        98.4560   82.1830  102.9120 C.ar  337  TYR337     -0.0200
    115  CD1       99.7170   81.9180  102.3810 C.ar  337  TYR337     -0.0009
    116  CD2       97.7450   83.2540  102.4070 C.ar  337  TYR337     -0.0009
    117  CE1      100.2390   82.7000  101.3690 C.ar  337  TYR337      0.0417
    118  CE2       98.2530   84.0350  101.3900 C.ar  337  TYR337      0.0417
    119  CZ        99.4970   83.7620  100.8790 C.ar  337  TYR337      0.1957
    120  OH       100.0150   84.5670   99.8850 O.3   337  TYR337     -0.2866
    121  N         98.2120   78.1460  104.9370 N.am  338  PRO338     -0.2729
    122  CA        99.3470   77.9600  104.0560 C.3   338  PRO338      0.1401
    123  C         98.9150   77.4370  102.6870 C.2   338  PRO338      0.2269
    124  O         97.9850   76.6220  102.5560 O.2   338  PRO338     -0.2865
    125  CB       100.2480   76.9250  104.7460 C.3   338  PRO338      0.0296
    126  CG        99.3260   76.2610  105.7240 C.3   338  PRO338      0.0237
    127  CD        98.2190   77.2200  106.0810 C.3   338  PRO338      0.0939
    128  N         94.6220   78.3310  107.5220 N.3   408  GLN408     -0.1245
    129  CA        94.7910   78.4430  108.9750 C.3   408  GLN408      0.1566
    130  C         95.7520   79.5840  109.2570 C.2   408  GLN408      0.2260
    131  O         96.8250   79.6460  108.6520 O.2   408  GLN408     -0.2867
    132  CB        95.3220   77.1380  109.5360 C.3   408  GLN408      0.0367
    133  CG        95.7970   77.0700  110.9750 C.3   408  GLN408      0.0905
    134  CD        96.3010   75.6480  111.2770 C.2   408  GLN408      0.2608
    135  OE1       96.0450   74.7470  110.4690 O.2   408  GLN408     -0.2717
    136  NE2       96.9660   75.4670  112.3980 N.am  408  GLN408     -0.0878
    137  N         98.6010   81.4880  110.8590 N.3   410  PHE410     -0.1241
    138  CA        99.8540   81.2000  111.5440 C.3   410  PHE410      0.1605
    139  C        100.2260   82.3940  112.4360 C.2   410  PHE410      0.2264
    140  O         99.8730   83.5290  112.1290 O.2   410  PHE410     -0.2867
    141  CB       101.0140   80.8830  110.6200 C.3   410  PHE410      0.0534
    142  CG       100.9240   79.5890  109.8680 C.ar  410  PHE410     -0.0203
    143  CD1      100.0910   78.5630  110.2800 C.ar  410  PHE410     -0.0042
    144  CD2      101.7020   79.3820  108.7360 C.ar  410  PHE410     -0.0042
    145  CE1      100.0140   77.3810  109.5780 C.ar  410  PHE410     -0.0003
    146  CE2      101.6210   78.2100  108.0170 C.ar  410  PHE410     -0.0003
    147  CZ       100.7910   77.1880  108.4430 C.ar  410  PHE410     -0.0000
    148  N        102.4860   84.7410  110.7920 N.3   413  ALA413     -0.1245
    149  CA       101.9250   85.5100  109.6850 C.3   413  ALA413      0.1562
    150  C        100.7800   86.3980  110.1460 C.2   413  ALA413      0.2260
    151  O        100.0110   86.9570  109.3560 O.2   413  ALA413     -0.2867
    152  CB       101.5150   84.6100  108.5410 C.3   413  ALA413      0.0290
    153  N        100.1360   89.5680  108.2570 N.3   416  PHE416     -0.1227
    154  CA        99.4970   89.5300  106.9480 C.3   416  PHE416      0.1736
    155  C         98.0820   88.9900  106.8890 C.2   416  PHE416      0.2596
    156  O         97.3720   89.1810  105.8930 O.2   416  PHE416     -0.2718
    157  CB       100.3410   88.6580  106.0070 C.3   416  PHE416      0.0547
    158  CG       101.8150   88.6980  106.2800 C.ar  416  PHE416     -0.0202
    159  CD1      102.5870   89.7630  105.8340 C.ar  416  PHE416     -0.0042
    160  CD2      102.4250   87.6490  106.9410 C.ar  416  PHE416     -0.0042
    161  CE1      103.9430   89.7950  106.0570 C.ar  416  PHE416     -0.0003
    162  CE2      103.7870   87.6590  107.1670 C.ar  416  PHE416     -0.0003
    163  CZ       104.5470   88.7350  106.7220 C.ar  416  PHE416     -0.0000
    164  N         97.6980   88.2080  107.8800 N.am  417  THR417     -0.1953
    165  CA        96.3610   87.6180  107.8930 C.3   417  THR417      0.1897
    166  C         95.4270   88.5050  108.6980 C.2   417  THR417      0.2313
    167  O         94.2590   88.6860  108.3680 O.2   417  THR417     -0.2863
    168  CB        96.4670   86.2310  108.5460 C.3   417  THR417      0.1794
    169  OG1       96.9300   86.3990  109.8940 O.3   417  THR417     -0.2208
    170  CG2       97.4940   85.4000  107.7860 C.3   417  THR417      0.0378
    171  N         90.1800   80.7180  107.2360 N.3   451  MET451     -0.1245
    172  CA        91.0720   81.2130  108.2500 C.3   451  MET451      0.1570
    173  C         90.6910   80.9760  109.6790 C.2   451  MET451      0.2261
    174  O         90.9480   81.8670  110.4920 O.2   451  MET451     -0.2867
    175  CB        91.3290   82.6990  107.9300 C.3   451  MET451      0.0387
    176  CG        92.3590   82.7950  106.7940 C.3   451  MET451      0.0595
    177  SD        94.0270   82.5070  107.4340 S.3   451  MET451     -0.1393
    178  CE        94.7260   81.6390  106.0460 C.3   451  MET451      0.0692
@<TRIPOS>BOND
     1   108   107    1
     2   106   107   ar
     3   106   104   ar
     4   107   105   ar
     5   104   102   ar
     6     5     2    1
     7     1     2    1
     8   105   103   ar
     9   100    99    2
    10     2     3    1
    11    99    98    1
    12   102   103   ar
    13   102   101    1
    14     4     3    2
    15     3     6   am
    16    16    14    1
    17   101    98    1
    18    98    97    1
    19     6     7    1
    20    14    15    1
    21    14    11    1
    22     7     8    1
    23    10     8   am
    24    10    11    1
    25    29    28    1
    26     8     9    2
    27    11    12    1
    28    95    94    2
    29    28    27    1
    30    71    69    1
    31    60    58   ar
    32    27    26    1
    33    94    96   am
    34    94    93    1
    35    12    13    2
    36    12    17   am
    37    92    91    2
    38   120   119    1
    39    59    58   ar
    40    69    70    1
    41    69    68    2
    42    58    57    1
    43    26    25    1
    44    93    90    1
    45    17    18    1
    46    91    90    1
    47    68    67    1
    48   119   117   ar
    49   119   118   ar
    50    52    53    1
    51    90    89    1
    52    53    54    1
    53    53    56    1
    54   117   115   ar
    55   118   116   ar
    56    57    56    1
    57    55    54    2
    58    66    67    1
    59    66    65    1
    60    25    22    1
    61    18    19    1
    62    21    19   am
    63    21    22    1
    64    54    61   am
    65    89    83   am
    66    61    62    1
    67    19    20    2
    68   115   114   ar
    69    22    23    1
    70   116   114   ar
    71   124   123    2
    72    62    65    1
    73    62    63    1
    74   123   122    1
    75    87    86   ar
    76   109   110    1
    77   114   113    1
    78    83    84    2
    79    83    82    1
    80    80    78   ar
    81   110   113    1
    82   110   111    1
    83    30    23   am
    84    30    31    1
    85    23    24    2
    86    35    34    1
    87    63    64    2
    88    86    88   ar
    89    86    85    1
    90   122   125    1
    91   122   121    1
    92    82    85    1
    93    82    81    1
    94    78    79   ar
    95    78    77    1
    96    34    31    1
    97    34    36    1
    98    51    49    1
    99   111   121   am
   100   111   112    2
   101   125   126    1
   102    31    32    1
   103   121   127    1
   104    77    76    1
   105   126   127    1
   106    48    49    1
   107    48    45    1
   108    37    32   am
   109    37    38    1
   110   159   161   ar
   111   159   158   ar
   112   156   155    2
   113   157   158    1
   114   157   154    1
   115    49    50    1
   116    43    41    1
   117   178   177    1
   118    32    33    2
   119   161   163   ar
   120   158   160   ar
   121    76    73    1
   122    41    38    1
   123    41    42    1
   124    44    45    1
   125    44    39   am
   126    72    73    1
   127   163   162   ar
   128   176   177    1
   129   176   175    1
   130   155   154    1
   131   155   164   am
   132   160   162   ar
   133    38    39    1
   134   154   153    1
   135    45    46    1
   136   171   172    1
   137    73    74    1
   138    39    40    2
   139   128   129    1
   140   170   168    1
   141    46    47    2
   142   164   165    1
   143   165   168    1
   144   165   166    1
   145   175   172    1
   146   146   147   ar
   147   146   144   ar
   148   172   173    1
   149   167   166    2
   150   147   145   ar
   151    74    75    2
   152   152   149    1
   153   168   169    1
   154   131   130    2
   155   144   142   ar
   156   129   130    1
   157   129   132    1
   158   151   150    2
   159   132   133    1
   160   145   143   ar
   161   173   174    2
   162   149   150    1
   163   149   148    1
   164   142   143   ar
   165   142   141    1
   166   135   134    2
   167   141   138    1
   168   137   138    1
   169   133   134    1
   170   134   136   am
   171   138   139    1
   172   140   139    2
