@<TRIPOS>MOLECULE
tmp/1h8iA01.pdb
 232 229 0 0 0
SMALL
GASTEIGER

@<TRIPOS>ATOM
      1  N         13.6250   -6.5170   24.0160 N.3    28  CYS28      -0.1235
      2  CA        13.8140   -6.1160   22.6120 C.3    28  CYS28       0.1677
      3  C         14.6460   -4.8160   22.6160 C.2    28  CYS28       0.2270
      4  O         14.7650   -4.1850   23.6590 O.2    28  CYS28      -0.2867
      5  CB        12.4640   -5.8060   22.0030 C.3    28  CYS28       0.0956
      6  SG        11.6370   -7.1370   21.0780 S.3    28  CYS28      -0.0801
      7  N          5.7850   -6.6600   17.2940 N.3    43  HIS43      -0.1241
      8  CA         5.8980   -8.0370   17.7900 C.3    43  HIS43       0.1621
      9  C          6.7280   -8.1870   19.0540 C.2    43  HIS43       0.2264
     10  O          6.5970   -9.2090   19.7530 O.2    43  HIS43      -0.2867
     11  CB         6.3800   -9.0230   16.7250 C.3    43  HIS43       0.0745
     12  CG         7.8620   -9.1700   16.6470 C.ar   43  HIS43       0.0817
     13  ND1        8.6210   -8.4750   15.7290 N.ar   43  HIS43      -0.2268
     14  CD2        8.6920   -9.9430   17.4020 C.ar   43  HIS43       0.1154
     15  CE1        9.8840   -8.8320   15.9430 C.ar   43  HIS43       0.1986
     16  NE2        9.9410   -9.7080   16.9420 N.ar   43  HIS43      -0.2212
     17  N          2.4480  -10.7500   20.2920 N.3    47  TYR47      -0.1241
     18  CA         2.7310  -11.8500   19.3710 C.3    47  TYR47       0.1605
     19  C          2.0690  -13.1280   19.9020 C.2    47  TYR47       0.2264
     20  O          2.6340  -13.9470   20.6260 O.2    47  TYR47      -0.2867
     21  CB         4.2210  -12.0150   19.1250 C.3    47  TYR47       0.0534
     22  CG         4.4430  -12.9100   17.9190 C.ar   47  TYR47      -0.0201
     23  CD1        4.0310  -12.5010   16.6560 C.ar   47  TYR47      -0.0009
     24  CD2        5.0730  -14.1300   18.0860 C.ar   47  TYR47      -0.0009
     25  CE1        4.2130  -13.3280   15.5570 C.ar   47  TYR47       0.0417
     26  CE2        5.2550  -14.9460   16.9920 C.ar   47  TYR47       0.0417
     27  CZ         4.8260  -14.5330   15.7300 C.ar   47  TYR47       0.1957
     28  OH         5.0370  -15.4170   14.6950 O.3    47  TYR47      -0.2866
     29  N          3.3650  -16.7880   20.3830 N.3    50  TRP50      -0.1241
     30  CA         4.2730  -17.0520   21.4980 C.3    50  TRP50       0.1605
     31  C          3.6230  -16.6860   22.8310 C.2    50  TRP50       0.2264
     32  O          4.3740  -16.4530   23.7980 O.2    50  TRP50      -0.2867
     33  CB         5.5530  -16.2360   21.3350 C.3    50  TRP50       0.0550
     34  CG         6.4470  -16.6620   20.2010 C.ar   50  TRP50       0.0003
     35  CD1        6.3710  -17.7870   19.4470 C.ar   50  TRP50       0.0946
     36  CD2        7.5950  -15.9390   19.7260 C.ar   50  TRP50       0.0152
     37  NE1        7.3790  -17.8190   18.5210 N.ar   50  TRP50      -0.2442
     38  CE2        8.1470  -16.6870   18.6710 C.ar   50  TRP50       0.0810
     39  CE3        8.1930  -14.7290   20.0930 C.ar   50  TRP50       0.0012
     40  CZ2        9.2800  -16.2620   17.9720 C.ar   50  TRP50       0.0191
     41  CZ3        9.3170  -14.2900   19.4180 C.ar   50  TRP50       0.0001
     42  CH2        9.8340  -15.0820   18.3670 C.ar   50  TRP50       0.0015
     43  N          2.6950  -13.7590   23.7510 N.3    52  LYS52      -0.1245
     44  CA         3.2610  -12.4960   24.2210 C.3    52  LYS52       0.1561
     45  C          2.2070  -11.4200   24.0560 C.2    52  LYS52       0.2260
     46  O          1.6750  -11.2230   22.9550 O.2    52  LYS52      -0.2867
     47  CB         4.5040  -12.1290   23.3770 C.3    52  LYS52       0.0271
     48  CG         4.9790  -10.7000   23.5920 C.3    52  LYS52       0.0035
     49  CD         6.2060  -10.3190   22.7730 C.3    52  LYS52       0.0206
     50  CE         7.3690  -11.2910   22.8930 C.3    52  LYS52       0.1093
     51  NZ         8.2510  -11.2450   21.6870 N.3    52  LYS52      -0.1314
     52  N          0.3200  -10.0560   12.6600 N.3    92  TRP92      -0.1241
     53  CA         1.0310  -11.0540   13.4330 C.3    92  TRP92       0.1605
     54  C          0.6620  -12.4800   12.9970 C.2    92  TRP92       0.2264
     55  O          1.4140  -13.4170   13.3100 O.2    92  TRP92      -0.2867
     56  CB         0.7700  -10.9680   14.9250 C.3    92  TRP92       0.0550
     57  CG        -0.6710  -10.8840   15.3630 C.ar   92  TRP92       0.0003
     58  CD1       -1.3820   -9.7400   15.5750 C.ar   92  TRP92       0.0946
     59  CD2       -1.5680  -11.9790   15.6350 C.ar   92  TRP92       0.0152
     60  NE1       -2.6780  -10.0660   15.9730 N.ar   92  TRP92      -0.2442
     61  CE2       -2.7970  -11.4100   16.0170 C.ar   92  TRP92       0.0810
     62  CE3       -1.4140  -13.3670   15.6210 C.ar   92  TRP92       0.0012
     63  CZ2       -3.9190  -12.2070   16.3690 C.ar   92  TRP92       0.0191
     64  CZ3       -2.5100  -14.1730   15.9570 C.ar   92  TRP92       0.0001
     65  CH2       -3.7280  -13.5530   16.3230 C.ar   92  TRP92       0.0015
     66  N          0.4430  -13.7130    9.9250 N.3    94  GLU94      -0.1231
     67  CA         1.1230  -14.2340    8.7620 C.3    94  GLU94       0.1699
     68  C          2.5840  -13.8120    8.6300 C.2    94  GLU94       0.2592
     69  O          3.4640  -14.6640    8.7100 O.2    94  GLU94      -0.2718
     70  CB         0.4150  -13.6960    7.4880 C.3    94  GLU94       0.0402
     71  CG         0.9700  -14.3450    6.2250 C.3    94  GLU94       0.1161
     72  CD         0.6910  -13.5820    4.9520 C.2    94  GLU94       0.3649
     73  OE1       -0.2790  -12.7950    4.8700 O.co2  94  GLU94      -0.2457
     74  OE2        1.4930  -13.7900    4.0080 O.co2  94  GLU94      -0.2457
     75  N          2.7880  -12.5230    8.3400 N.am   95  ASN95      -0.1960
     76  CA         4.1600  -12.1400    7.9490 C.3    95  ASN95       0.1819
     77  C          4.7540  -10.9600    8.6570 C.2    95  ASN95       0.2621
     78  O          5.7400  -10.4170    8.1630 O.2    95  ASN95      -0.2715
     79  CB         4.1290  -11.9320    6.4050 C.3    95  ASN95       0.1195
     80  CG         3.1820  -10.7880    6.0700 C.2    95  ASN95       0.2630
     81  OD1        2.5030  -10.2260    6.9330 O.2    95  ASN95      -0.2716
     82  ND2        3.1150  -10.3970    4.8060 N.am   95  ASN95      -0.0877
     83  N          4.1640  -10.5400    9.7750 N.am   96  LEU96      -0.1977
     84  CA         4.6070   -9.3530   10.5130 C.3    96  LEU96       0.1596
     85  C          4.5920   -8.0820    9.6570 C.2    96  LEU96       0.2287
     86  O          5.3590   -7.1180    9.9090 O.2    96  LEU96      -0.2864
     87  CB         6.0580   -9.6000   10.9980 C.3    96  LEU96       0.0297
     88  CG         6.2570  -10.7100   12.0260 C.3    96  LEU96       0.0022
     89  CD1        7.6970  -10.7440   12.5760 C.3    96  LEU96       0.0001
     90  CD2        5.2760  -10.5950   13.1880 C.3    96  LEU96       0.0001
     91  N         23.3200  -17.4670   16.1620 N.3   146  GLU146     -0.1245
     92  CA        21.9970  -18.0750   16.0370 C.3   146  GLU146      0.1567
     93  C         21.7570  -19.0760   17.1680 C.2   146  GLU146      0.2260
     94  O         20.6600  -19.1720   17.7230 O.2   146  GLU146     -0.2867
     95  CB        21.8350  -18.7430   14.6720 C.3   146  GLU146      0.0388
     96  CG        20.4190  -19.2790   14.5190 C.3   146  GLU146      0.1160
     97  CD        20.1230  -19.7940   13.1280 C.2   146  GLU146      0.3649
     98  OE1       20.5830  -19.2260   12.1160 O.co2 146  GLU146     -0.2457
     99  OE2       19.3860  -20.8130   13.0740 O.co2 146  GLU146     -0.2457
    100  N         13.2350  -16.0450    0.3430 N.3   171  THR171     -0.1203
    101  CA        12.3290  -16.4200    1.4000 C.3   171  THR171      0.1994
    102  C         11.0240  -16.9750    0.8600 C.2   171  THR171      0.2618
    103  O         10.6660  -16.6690   -0.2780 O.2   171  THR171     -0.2717
    104  CB        12.0370  -15.1550    2.2740 C.3   171  THR171      0.1784
    105  OG1       11.3480  -15.5610    3.4570 O.3   171  THR171     -0.2211
    106  CG2       11.2620  -14.0860    1.5170 C.3   171  THR171      0.0376
    107  N         10.3360  -17.7410    1.6930 N.am  172  ARG172     -0.1965
    108  CA         8.9960  -18.2190    1.3850 C.3   172  ARG172      0.1729
    109  C          7.9680  -17.2880    2.0020 C.2   172  ARG172      0.2616
    110  O          6.7630  -17.3420    1.6620 O.2   172  ARG172     -0.2715
    111  CB         8.7720  -19.6520    1.9210 C.3   172  ARG172      0.0348
    112  CG         9.6570  -20.6670    1.1860 C.3   172  ARG172      0.0492
    113  CD         9.5390  -22.0880    1.7210 C.3   172  ARG172      0.2205
    114  NE         8.2880  -22.6950    1.2510 N.pl3 172  ARG172     -0.0865
    115  CZ         8.0340  -24.0130    1.4240 C.cat 172  ARG172      0.5346
    116  NH1        8.8790  -24.7910    2.0440 N.pl3 172  ARG172      0.1354
    117  NH2        6.8660  -24.4030    0.9280 N.pl3 172  ARG172      0.1354
    118  N          8.4040  -16.3680    2.8900 N.am  173  ILE173     -0.1977
    119  CA         7.4790  -15.4040    3.4850 C.3   173  ILE173      0.1596
    120  C          7.0280  -14.4020    2.4250 C.2   173  ILE173      0.2287
    121  O          7.8110  -13.9270    1.5930 O.2   173  ILE173     -0.2864
    122  CB         8.1030  -14.6350    4.6820 C.3   173  ILE173      0.0276
    123  CG1        8.6280  -15.5930    5.7690 C.3   173  ILE173      0.0022
    124  CG2        7.1550  -13.6370    5.3330 C.3   173  ILE173      0.0022
    125  CD1        7.4970  -16.3060    6.5170 C.3   173  ILE173      0.0001
    126  N         24.2880   -9.7030   10.7610 N.3   193  ASP193     -0.1225
    127  CA        22.8400   -9.7360   10.7890 C.3   193  ASP193      0.1805
    128  C         22.3700   -9.3680   12.1960 C.2   193  ASP193      0.2598
    129  O         23.1270   -9.5030   13.1630 O.2   193  ASP193     -0.2718
    130  CB        22.3510  -11.1460   10.4690 C.3   193  ASP193      0.1424
    131  CG        20.8750  -11.2560   10.1580 C.2   193  ASP193      0.3668
    132  OD1       20.1960  -10.2330    9.9350 O.co2 193  ASP193     -0.2456
    133  OD2       20.3810  -12.4300   10.1080 O.co2 193  ASP193     -0.2456
    134  N         21.0650   -9.0760   12.2560 N.am  194  ALA194     -0.1966
    135  CA        20.4460   -8.9700   13.5640 C.3   194  ALA194      0.1728
    136  C         20.1060  -10.3960   14.0270 C.2   194  ALA194      0.2616
    137  O         19.9960  -11.2960   13.1960 O.2   194  ALA194     -0.2715
    138  CB        19.1220   -8.2160   13.4320 C.3   194  ALA194      0.0334
    139  N         19.9150  -10.5590   15.3190 N.am  195  CYS195     -0.1954
    140  CA        19.5230  -11.8930   15.8350 C.3   195  CYS195      0.1843
    141  C         18.5420  -11.7400   16.9770 C.2   195  CYS195      0.2625
    142  O         18.1090  -10.6120   17.2840 O.2   195  CYS195     -0.2714
    143  CB        20.7930  -12.6120   16.2560 C.3   195  CYS195      0.0997
    144  SG        20.5980  -14.4400   16.3730 S.3   195  CYS195     -0.0797
    145  N         18.1020  -12.8310   17.6110 N.am  196  GLU196     -0.1963
    146  CA        17.1540  -12.7760   18.7030 C.3   196  GLU196      0.1733
    147  C         17.4630  -11.7310   19.7730 C.2   196  GLU196      0.2617
    148  O         18.5320  -11.8060   20.3920 O.2   196  GLU196     -0.2715
    149  CB        17.1500  -14.1290   19.4770 C.3   196  GLU196      0.0429
    150  CG        16.6110  -15.2690   18.6190 C.3   196  GLU196      0.1163
    151  CD        16.6090  -16.5830   19.3970 C.2   196  GLU196      0.3649
    152  OE1       16.9010  -16.5440   20.6160 O.co2 196  GLU196     -0.2457
    153  OE2       16.3310  -17.6380   18.7960 O.co2 196  GLU196     -0.2457
    154  N         16.5250  -10.8220   20.0220 N.am  197  GLY197     -0.1940
    155  CA        16.7280   -9.7910   21.0310 C.3   197  GLY197      0.2014
    156  C         17.0570   -8.4230   20.3980 C.2   197  GLY197      0.2639
    157  O         16.9870   -7.4250   21.1060 O.2   197  GLY197     -0.2714
    158  N         17.3690   -8.4030   19.1140 N.am  198  ASP198     -0.1957
    159  CA        17.6730   -7.1760   18.3700 C.3   198  ASP198      0.1840
    160  C         16.4120   -6.5730   17.8040 C.2   198  ASP198      0.2622
    161  O         16.4000   -5.3750   17.4540 O.2   198  ASP198     -0.2715
    162  CB        18.6390   -7.4880   17.2040 C.3   198  ASP198      0.1450
    163  CG        20.0500   -7.7450   17.7370 C.2   198  ASP198      0.3671
    164  OD1       20.4610   -7.0950   18.7390 O.co2 198  ASP198     -0.2456
    165  OD2       20.7860   -8.5570   17.1670 O.co2 198  ASP198     -0.2456
    166  N         15.3120   -7.3760   17.7490 N.am  199  SER199     -0.1950
    167  CA        14.0650   -6.8510   17.1990 C.3   199  SER199      0.1924
    168  C         13.6560   -5.5710   17.8840 C.2   199  SER199      0.2314
    169  O         13.8800   -5.4310   19.0810 O.2   199  SER199     -0.2863
    170  CB        12.8940   -7.8590   17.4770 C.3   199  SER199      0.2116
    171  OG        12.9630   -8.9040   16.5280 O.3   199  SER199     -0.2180
    172  N         14.2960   -3.3580   13.1760 N.3   219  VAL219     -0.1231
    173  CA        14.5720   -4.7870   13.1010 C.3   219  VAL219      0.1692
    174  C         13.2810   -5.6070   13.2860 C.2   219  VAL219      0.2593
    175  O         12.6460   -5.4750   14.3160 O.2   219  VAL219     -0.2718
    176  CB        15.6180   -5.2300   14.1650 C.3   219  VAL219      0.0266
    177  CG1       15.8720   -6.7250   14.0540 C.3   219  VAL219      0.0020
    178  CG2       16.8850   -4.3900   13.9760 C.3   219  VAL219      0.0020
    179  N         12.9130   -6.3620   12.2270 N.am  220  SER220     -0.1938
    180  CA        11.6310   -7.1010   12.3320 C.3   220  SER220      0.2055
    181  C         11.7950   -8.6030   12.3250 C.2   220  SER220      0.2643
    182  O         11.2790   -9.2810   13.2320 O.2   220  SER220     -0.2714
    183  CB        10.7380   -6.6170   11.1700 C.3   220  SER220      0.2130
    184  OG         9.4630   -7.2450   11.2110 O.3   220  SER220     -0.2179
    185  N         12.3080   -9.2110   11.2620 N.am  221  TRP221     -0.1959
    186  CA        12.4060  -10.6620   11.2440 C.3   221  TRP221      0.1771
    187  C         13.5190  -11.1400   10.3490 C.2   221  TRP221      0.2620
    188  O         14.1340  -10.3810    9.5860 O.2   221  TRP221     -0.2715
    189  CB        11.0620  -11.2730   10.7680 C.3   221  TRP221      0.0590
    190  CG        10.5930  -10.8880    9.3950 C.ar  221  TRP221      0.0006
    191  CD1        9.7940   -9.8470    9.0830 C.ar  221  TRP221      0.0946
    192  CD2       10.8120  -11.5740    8.1420 C.ar  221  TRP221      0.0152
    193  NE1        9.5330   -9.7740    7.7320 N.ar  221  TRP221     -0.2442
    194  CE2       10.1400  -10.8550    7.1440 C.ar  221  TRP221      0.0810
    195  CE3       11.5100  -12.7380    7.8160 C.ar  221  TRP221      0.0012
    196  CZ2       10.1470  -11.2320    5.7980 C.ar  221  TRP221      0.0191
    197  CZ3       11.5350  -13.1210    6.4740 C.ar  221  TRP221      0.0001
    198  CH2       10.8610  -12.3660    5.5020 C.ar  221  TRP221      0.0015
    199  N         13.7860  -12.4300   10.5200 N.am  222  GLY222     -0.1940
    200  CA        14.8330  -13.0520    9.6770 C.3   222  GLY222      0.2014
    201  C         14.7890  -14.5720    9.9090 C.2   222  GLY222      0.2639
    202  O         14.3390  -15.0170   10.9500 O.2   222  GLY222     -0.2714
    203  N         15.2400  -15.2810    8.8840 N.am  223  GLU223     -0.1963
    204  CA        15.2400  -16.7600    8.9300 C.3   223  GLU223      0.1733
    205  C         16.5940  -17.1850    9.4500 C.2   223  GLU223      0.2617
    206  O         17.5910  -17.2980    8.7380 O.2   223  GLU223     -0.2715
    207  CB        14.8980  -17.2970    7.5300 C.3   223  GLU223      0.0429
    208  CG        14.7540  -18.8220    7.5000 C.3   223  GLU223      0.1163
    209  CD        14.3990  -19.3930    6.1360 C.2   223  GLU223      0.3649
    210  OE1       14.2230  -18.7020    5.1200 O.co2 223  GLU223     -0.2457
    211  OE2       14.2720  -20.6450    6.0750 O.co2 223  GLU223     -0.2457
    212  N         16.6730  -17.2580   10.7690 N.am  224  GLY224     -0.1940
    213  CA        17.8990  -17.5770   11.4780 C.3   224  GLY224      0.2014
    214  C         18.6990  -16.2690   11.5850 C.2   224  GLY224      0.2639
    215  O         18.1210  -15.1720   11.4310 O.2   224  GLY224     -0.2714
    216  N         19.9810  -16.4300   11.8520 N.am  225  CYS225     -0.1967
    217  CA        20.8400  -15.2530   11.9870 C.3   225  CYS225      0.1712
    218  C         22.1350  -15.4260   11.2240 C.2   225  CYS225      0.2296
    219  O         22.8870  -16.4070   11.4020 O.2   225  CYS225     -0.2864
    220  CB        21.1780  -15.0310   13.4680 C.3   225  CYS225      0.0983
    221  SG        19.8160  -14.9740   14.6150 S.3   225  CYS225     -0.0798
    222  N         22.6730  -16.3230    8.1870 N.3   227  ARG227     -0.1245
    223  CA        22.7900  -17.5010    7.3100 C.3   227  ARG227      0.1563
    224  C         23.1300  -17.0510    5.8980 C.2   227  ARG227      0.2260
    225  O         22.5680  -16.0500    5.4150 O.2   227  ARG227     -0.2867
    226  CB        21.4730  -18.2830    7.2410 C.3   227  ARG227      0.0307
    227  CG        21.0870  -18.8890    8.5810 C.3   227  ARG227      0.0489
    228  CD        20.0050  -19.9510    8.3740 C.3   227  ARG227      0.2205
    229  NE        19.3630  -20.2770    9.6410 N.pl3 227  ARG227     -0.0865
    230  CZ        18.1940  -20.9110    9.7290 C.cat 227  ARG227      0.5346
    231  NH1       17.5480  -21.2960    8.6400 N.pl3 227  ARG227      0.1354
    232  NH2       17.6730  -21.1490   10.9260 N.pl3 227  ARG227      0.1354
@<TRIPOS>BOND
     1   103   102    2
     2   100   101    1
     3   102   101    1
     4   102   107   am
     5   117   115    1
     6   112   113    1
     7   112   111    1
     8   114   115    2
     9   114   113    1
    10   108   107    1
    11   108   111    1
    12   108   109    1
    13   101   104    1
    14   115   116    1
    15   106   104    1
    16   121   120    2
    17   110   109    2
    18   109   118   am
    19   104   105    1
    20   120   119    1
    21   118   119    1
    22   119   122    1
    23    74    72   ar
    24   122   124    1
    25   122   123    1
    26    82    80   am
    27    73    72   ar
    28    72    71    1
    29   210   209   ar
    30   225   224    2
    31   198   196   ar
    32   198   197   ar
    33   123   125    1
    34   196   194   ar
    35   224   223    1
    36    80    79    1
    37    80    81    2
    38   211   209   ar
    39   209   208    1
    40    71    70    1
    41    79    76    1
    42   197   195   ar
    43   194   193   ar
    44   194   192   ar
    45   226   223    1
    46   226   227    1
    47   223   222    1
    48    70    67    1
    49   208   207    1
    50   207   204    1
    51   193   191   ar
    52   195   192   ar
    53    76    75    1
    54    76    77    1
    55   192   190   ar
    56    78    77    2
    57    75    68   am
    58   228   227    1
    59   228   229    1
    60    68    69    2
    61    68    67    1
    62   231   230    1
    63    77    83   am
    64   206   205    2
    65    67    66    1
    66   203   204    1
    67   203   201   am
    68   204   205    1
    69   191   190   ar
    70   190   189    1
    71   205   212   am
    72   188   187    2
    73   229   230    2
    74    85    86    2
    75    85    84    1
    76   200   201    1
    77   200   199    1
    78   230   232    1
    79    83    84    1
    80   201   202    2
    81   132   131   ar
    82   133   131   ar
    83   131   130    1
    84   187   199   am
    85   187   186    1
    86   130   127    1
    87    84    87    1
    88   126   127    1
    89   189   186    1
    90   212   213    1
    91   127   128    1
    92    87    88    1
    93   183   184    1
    94   183   180    1
    95   218   219    2
    96   218   217    1
    97   186   185    1
    98   185   181   am
    99   215   214    2
   100   213   214    1
   101   214   216   am
   102   216   217    1
   103   217   220    1
   104    88    89    1
   105    88    90    1
   106    98    97   ar
   107   128   134   am
   108   128   129    2
   109   179   180    1
   110   179   174   am
   111   134   135    1
   112   181   180    1
   113   181   182    2
   114    52    53    1
   115    54    55    2
   116    54    53    1
   117    99    97   ar
   118   173   172    1
   119   173   174    1
   120   173   176    1
   121    97    96    1
   122   137   136    2
   123   174   175    2
   124   138   135    1
   125    53    56    1
   126   220   221    1
   127   135   136    1
   128   178   176    1
   129   136   139   am
   130   177   176    1
   131    96    95    1
   132   221   144    1
   133    95    92    1
   134    28    27    1
   135    56    57    1
   136   139   140    1
   137    57    58   ar
   138    57    59   ar
   139    25    27   ar
   140    25    23   ar
   141    58    60   ar
   142    62    59   ar
   143    62    64   ar
   144    59    61   ar
   145    13    15   ar
   146    13    12   ar
   147    27    26   ar
   148   140   143    1
   149   140   141    1
   150    15    16   ar
   151    64    65   ar
   152    60    61   ar
   153    61    63   ar
   154    92    91    1
   155    92    93    1
   156   143   144    1
   157    65    63   ar
   158   171   170    1
   159    12    11    1
   160    12    14   ar
   161    23    22   ar
   162    11     8    1
   163    16    14   ar
   164   141   142    2
   165   141   145   am
   166    26    24   ar
   167   165   163   ar
   168    93    94    2
   169   167   170    1
   170   167   166    1
   171   167   168    1
   172   162   163    1
   173   162   159    1
   174     7     8    1
   175   161   160    2
   176   145   146    1
   177   163   164   ar
   178   166   160   am
   179     8     9    1
   180   160   159    1
   181   168   169    2
   182    22    24   ar
   183    22    21    1
   184    40    42   ar
   185    40    38   ar
   186    42    41   ar
   187   159   158    1
   188    37    38   ar
   189    37    35   ar
   190   150   151    1
   191   150   149    1
   192    38    36   ar
   193   146   149    1
   194   146   147    1
   195   153   151   ar
   196     9    10    2
   197   158   156   am
   198    21    18    1
   199    18    19    1
   200    18    17    1
   201   151   152   ar
   202    41    39   ar
   203    35    34   ar
   204    36    39   ar
   205    36    34   ar
   206   147   154   am
   207   147   148    2
   208    19    20    2
   209   154   155    1
   210    34    33    1
   211    29    30    1
   212   156   155    1
   213   156   157    2
   214     6     5    1
   215    33    30    1
   216    30    31    1
   217    51    50    1
   218     5     2    1
   219     2     3    1
   220     2     1    1
   221     3     4    2
   222    49    50    1
   223    49    48    1
   224    31    32    2
   225    46    45    2
   226    47    48    1
   227    47    44    1
   228    43    44    1
   229    45    44    1
