@<TRIPOS>MOLECULE
tmp/1h8lA00.pdb
 141 133 0 0 0
SMALL
GASTEIGER

@<TRIPOS>ATOM
      1  N          0.9930   39.3330   21.0750 N.3    71  HIS71      -0.1241
      2  CA         0.4550   38.5150   22.1520 C.3    71  HIS71       0.1621
      3  C          0.0710   39.5370   23.2130 C.2    71  HIS71       0.2264
      4  O          0.9280   40.2000   23.7870 O.2    71  HIS71      -0.2867
      5  CB         1.5280   37.5620   22.6860 C.3    71  HIS71       0.0745
      6  CG         1.7770   36.3730   21.8060 C.ar   71  HIS71       0.0817
      7  ND1        3.0060   35.7730   21.7430 N.ar   71  HIS71      -0.2268
      8  CD2        0.9100   35.7070   21.0030 C.ar   71  HIS71       0.1154
      9  CE1        2.8690   34.7630   20.9090 C.ar   71  HIS71       0.1986
     10  NE2        1.6160   34.6800   20.4340 N.ar   71  HIS71      -0.2212
     11  N          2.1720   40.3640   26.4840 N.3    74  GLU74      -0.1245
     12  CA         3.6060   40.6190   26.3490 C.3    74  GLU74       0.1567
     13  C          3.6420   42.0880   25.9450 C.2    74  GLU74       0.2260
     14  O          3.6830   42.4510   24.7690 O.2    74  GLU74      -0.2867
     15  CB         4.1950   39.6960   25.2880 C.3    74  GLU74       0.0388
     16  CG         4.0140   38.2400   25.6790 C.3    74  GLU74       0.1160
     17  CD         4.4150   37.2690   24.5980 C.2    74  GLU74       0.3649
     18  OE1        4.1310   36.0580   24.7650 O.co2  74  GLU74      -0.2457
     19  OE2        5.0130   37.7110   23.5910 O.co2  74  GLU74      -0.2457
     20  N         -3.1540   36.6100   25.9940 N.3   132  ARG132     -0.1245
     21  CA        -2.2120   36.2390   24.9450 C.3   132  ARG132      0.1563
     22  C         -2.8680   36.1110   23.5740 C.2   132  ARG132      0.2260
     23  O         -2.4550   36.7760   22.6230 O.2   132  ARG132     -0.2867
     24  CB        -1.5160   34.9280   25.3000 C.3   132  ARG132      0.0307
     25  CG        -0.6250   34.3920   24.1990 C.3   132  ARG132      0.0489
     26  CD        -0.1310   33.0170   24.5610 C.3   132  ARG132      0.2205
     27  NE         0.4910   32.3240   23.4340 N.pl3 132  ARG132     -0.0865
     28  CZ         1.7830   32.3930   23.1100 C.cat 132  ARG132      0.5346
     29  NH1        2.6170   33.1350   23.8340 N.pl3 132  ARG132      0.1354
     30  NH2        2.2440   31.7130   22.0580 N.pl3 132  ARG132      0.1354
     31  N          0.2060   34.1920   16.5320 N.3   141  ASN141     -0.1225
     32  CA         1.5180   33.7400   16.0770 C.3   141  ASN141      0.1785
     33  C          1.5290   32.2400   15.7670 C.2   141  ASN141      0.2597
     34  O          2.5650   31.5840   15.8320 O.2   141  ASN141     -0.2718
     35  CB         2.6000   34.0930   17.1000 C.3   141  ASN141      0.1169
     36  CG         3.9950   34.1000   16.4970 C.2   141  ASN141      0.2627
     37  OD1        4.2070   34.5830   15.3830 O.2   141  ASN141     -0.2716
     38  ND2        4.9570   33.5830   17.2430 N.am  141  ASN141     -0.0877
     39  N          0.3500   31.7190   15.4360 N.am  142  ARG142     -0.1979
     40  CA         0.1390   30.3290   15.0460 C.3   142  ARG142      0.1597
     41  C         -0.8430   30.4230   13.8880 C.2   142  ARG142      0.2287
     42  O         -1.1790   29.4220   13.2560 O.2   142  ARG142     -0.2864
     43  CB        -0.5330   29.5330   16.1630 C.3   142  ARG142      0.0334
     44  CG         0.2940   29.3550   17.3920 C.3   142  ARG142      0.0492
     45  CD         1.4770   28.4510   17.1200 C.3   142  ARG142      0.2205
     46  NE         2.2680   28.2680   18.3300 N.pl3 142  ARG142     -0.0865
     47  CZ         3.0210   29.2170   18.8690 C.cat 142  ARG142      0.5346
     48  NH1        3.6960   28.9780   19.9810 N.pl3 142  ARG142      0.1354
     49  NH2        3.1170   30.3980   18.2830 N.pl3 142  ARG142      0.1354
     50  N          8.2200   40.4990   21.4300 N.3   178  HIS178     -0.1226
     51  CA         7.5450   39.6180   22.3820 C.3   178  HIS178      0.1752
     52  C          8.1420   39.7140   23.7790 C.2   178  HIS178      0.2596
     53  O          9.0860   40.4640   24.0320 O.2   178  HIS178     -0.2718
     54  CB         7.6470   38.1620   21.9310 C.3   178  HIS178      0.0759
     55  CG         6.8550   37.8450   20.7070 C.ar  178  HIS178      0.0818
     56  ND1        5.7370   37.0500   20.7580 N.ar  178  HIS178     -0.2268
     57  CD2        7.0750   38.2290   19.4200 C.ar  178  HIS178      0.1154
     58  CE1        5.3060   36.9610   19.5190 C.ar  178  HIS178      0.1986
     59  NE2        6.0810   37.6590   18.6730 N.ar  178  HIS178     -0.2212
     60  N          7.5750   38.9180   24.6790 N.am  179  GLY179     -0.1957
     61  CA         8.0330   38.8620   26.0530 C.3   179  GLY179      0.1869
     62  C          7.9280   37.4250   26.5190 C.2   179  GLY179      0.2309
     63  O          7.1270   36.6480   25.9920 O.2   179  GLY179     -0.2863
     64  N         15.2940   36.0270   18.2080 N.3   185  ASN185     -0.1240
     65  CA        14.9210   34.8000   17.5060 C.3   185  ASN185      0.1653
     66  C         14.8870   34.9920   15.9790 C.2   185  ASN185      0.2266
     67  O         14.2660   35.9360   15.4890 O.2   185  ASN185     -0.2867
     68  CB        13.5260   34.4210   18.0390 C.3   185  ASN185      0.1155
     69  CG        12.9940   33.1270   17.4850 C.2   185  ASN185      0.2627
     70  OD1       13.1630   32.0710   18.0860 O.2   185  ASN185     -0.2716
     71  ND2       12.3310   33.2000   16.3400 N.am  185  ASN185     -0.0877
     72  N         11.3250   29.1620   12.1890 N.3   189  ASP189     -0.1239
     73  CA        10.7090   28.8970   13.4930 C.3   189  ASP189      0.1674
     74  C         10.2830   27.4560   13.7000 C.2   189  ASP189      0.2266
     75  O          9.9700   27.0490   14.8190 O.2   189  ASP189     -0.2867
     76  CB         9.4730   29.7700   13.7000 C.3   189  ASP189      0.1410
     77  CG         9.7960   31.0900   14.3410 C.2   189  ASP189      0.3668
     78  OD1       10.7440   31.1430   15.1490 O.co2 189  ASP189     -0.2456
     79  OD2        9.0850   32.0720   14.0450 O.co2 189  ASP189     -0.2456
     80  N         14.8830   30.0120   15.7050 N.3   243  GLY243     -0.1225
     81  CA        13.5920   29.6960   16.2830 C.3   243  GLY243      0.1811
     82  C         13.3970   28.2280   16.6070 C.2   243  GLY243      0.2280
     83  O         13.2710   27.8430   17.7730 O.2   243  GLY243     -0.2866
     84  N         15.2140   26.4930   19.4730 N.3   246  TRP246     -0.1227
     85  CA        14.7100   26.8040   20.7960 C.3   246  TRP246      0.1737
     86  C         13.5230   25.8450   20.9840 C.2   246  TRP246      0.2595
     87  O         13.4640   25.0830   21.9550 O.2   246  TRP246     -0.2718
     88  CB        14.2840   28.2650   20.8390 C.3   246  TRP246      0.0564
     89  CG        13.8170   28.6990   22.1620 C.ar  246  TRP246      0.0003
     90  CD1       13.8830   27.9920   23.3290 C.ar  246  TRP246      0.0946
     91  CD2       13.1910   29.9460   22.4760 C.ar  246  TRP246      0.0152
     92  NE1       13.3280   28.7240   24.3560 N.ar  246  TRP246     -0.2442
     93  CE2       12.8920   29.9260   23.8620 C.ar  246  TRP246      0.0810
     94  CE3       12.8430   31.0800   21.7220 C.ar  246  TRP246      0.0012
     95  CZ2       12.2680   30.9980   24.5070 C.ar  246  TRP246      0.0191
     96  CZ3       12.2220   32.1450   22.3630 C.ar  246  TRP246      0.0001
     97  CH2       11.9380   32.0950   23.7450 C.ar  246  TRP246      0.0015
     98  N         12.5900   25.8770   20.0350 N.am  247  TYR247     -0.1976
     99  CA        11.4420   24.9750   20.0210 C.3   247  TYR247      0.1639
    100  C         10.5830   25.2440   18.7940 C.2   247  TYR247      0.2290
    101  O         10.5170   26.3680   18.3040 O.2   247  TYR247     -0.2864
    102  CB        10.6370   25.0490   21.3300 C.3   247  TYR247      0.0560
    103  CG         9.9170   26.3390   21.6240 C.ar  247  TYR247     -0.0198
    104  CD1        8.6320   26.5710   21.1310 C.ar  247  TYR247     -0.0009
    105  CD2       10.4950   27.3090   22.4480 C.ar  247  TYR247     -0.0009
    106  CE1        7.9390   27.7260   21.4580 C.ar  247  TYR247      0.0417
    107  CE2        9.8120   28.4730   22.7770 C.ar  247  TYR247      0.0417
    108  CZ         8.5340   28.6730   22.2820 C.ar  247  TYR247      0.1957
    109  OH         7.8320   29.8060   22.6260 O.3   247  TYR247     -0.2866
    110  N          7.7350   26.1040   16.2960 N.3   249  VAL249     -0.1245
    111  CA         6.5860   27.0100   16.2830 C.3   249  VAL249      0.1561
    112  C          6.0620   27.1460   14.8620 C.2   249  VAL249      0.2260
    113  O          6.7060   27.7620   14.0160 O.2   249  VAL249     -0.2867
    114  CB         6.9510   28.4340   16.7740 C.3   249  VAL249      0.0252
    115  CG1        5.7970   29.3850   16.4890 C.3   249  VAL249      0.0019
    116  CG2        7.2490   28.4230   18.2620 C.3   249  VAL249      0.0019
    117  N         12.3540   37.9640   15.3940 N.3   267  THR267     -0.1218
    118  CA        11.4700   38.0460   16.5600 C.3   267  THR267      0.1862
    119  C         12.2900   38.3910   17.8020 C.2   267  THR267      0.2287
    120  O         13.2180   37.6710   18.1500 O.2   267  THR267     -0.2866
    121  CB        10.7530   36.7190   16.8210 C.3   267  THR267      0.1770
    122  OG1       10.0600   36.3050   15.6410 O.3   267  THR267     -0.2211
    123  CG2        9.7540   36.8830   17.9350 C.3   267  THR267      0.0375
    124  N         12.6390   38.9760   21.8990 N.3   269  GLU269     -0.1245
    125  CA        12.0960   38.7180   23.2270 C.3   269  GLU269      0.1567
    126  C         12.7700   39.7290   24.1500 C.2   269  GLU269      0.2260
    127  O         13.9690   39.6450   24.3980 O.2   269  GLU269     -0.2867
    128  CB        12.4270   37.2910   23.6480 C.3   269  GLU269      0.0388
    129  CG        11.7880   36.2290   22.7570 C.3   269  GLU269      0.1160
    130  CD        10.3580   35.9000   23.1560 C.2   269  GLU269      0.3649
    131  OE1        9.6780   35.1470   22.4210 O.co2 269  GLU269     -0.2457
    132  OE2        9.9170   36.3890   24.2170 O.co2 269  GLU269     -0.2457
    133  N          6.6490   38.9910   31.2160 N.3   274  LYS274     -0.1245
    134  CA         5.6950   39.4120   30.2010 C.3   274  LYS274      0.1561
    135  C          5.0230   40.7590   30.4520 C.2   274  LYS274      0.2260
    136  O          5.0420   41.6340   29.5880 O.2   274  LYS274     -0.2867
    137  CB         4.6230   38.3320   30.0130 C.3   274  LYS274      0.0271
    138  CG         5.1330   37.0870   29.3060 C.3   274  LYS274      0.0035
    139  CD         4.0600   36.0200   29.1530 C.3   274  LYS274      0.0206
    140  CE         4.5870   34.8450   28.3300 C.3   274  LYS274      0.1093
    141  NZ         3.6210   33.7070   28.1820 N.3   274  LYS274     -0.1314
@<TRIPOS>BOND
     1    72    73    1
     2    42    41    2
     3    73    76    1
     4    73    74    1
     5    76    77    1
     6    74    75    2
     7    41    40    1
     8   113   112    2
     9    79    77   ar
    10    77    78   ar
    11   112   111    1
    12    40    39    1
    13    40    43    1
    14    37    36    2
    15   117   118    1
    16    39    33   am
    17    67    66    2
    18   122   121    1
    19    80    81    1
    20    33    34    2
    21    33    32    1
    22    66    65    1
    23    32    31    1
    24    32    35    1
    25    43    44    1
    26    81    82    1
    27   111   110    1
    28   111   114    1
    29    71    69   am
    30   115   114    1
    31    36    35    1
    32    36    38   am
    33   118   121    1
    34   118   119    1
    35    82    83    2
    36   114   116    1
    37   121   123    1
    38    45    44    1
    39    45    46    1
    40    69    68    1
    41    69    70    2
    42    65    68    1
    43    65    64    1
    44   119   120    2
    45    49    47    1
    46   101   100    2
    47    46    47    2
    48    59    57   ar
    49    59    58   ar
    50   100    99    1
    51    47    48    1
    52    57    55   ar
    53    84    85    1
    54    58    56   ar
    55    99    98    1
    56    99   102    1
    57    98    86   am
    58    10     9   ar
    59    10     8   ar
    60    55    56   ar
    61    55    54    1
    62    85    88    1
    63    85    86    1
    64    88    89    1
    65     9     7   ar
    66    86    87    2
    67     8     6   ar
    68     1     2    1
    69   104   106   ar
    70   104   103   ar
    71   102   103    1
    72    50    51    1
    73   106   108   ar
    74   103   105   ar
    75    94    96   ar
    76    94    91   ar
    77     7     6   ar
    78     6     5    1
    79   124   125    1
    80    54    51    1
    81    30    28    1
    82     2     5    1
    83     2     3    1
    84    89    91   ar
    85    89    90   ar
    86   108   109    1
    87   108   107   ar
    88    96    97   ar
    89    51    52    1
    90   131   130   ar
    91   105   107   ar
    92    91    93   ar
    93    23    22    2
    94   129   130    1
    95   129   128    1
    96    28    27    2
    97    28    29    1
    98   130   132   ar
    99     3     4    2
   100   125   128    1
   101   125   126    1
   102    90    92   ar
   103    27    26    1
   104    22    21    1
   105    19    17   ar
   106    97    95   ar
   107    52    53    2
   108    52    60   am
   109    93    92   ar
   110    93    95   ar
   111   126   127    2
   112    25    26    1
   113    25    24    1
   114    17    18   ar
   115    17    16    1
   116    60    61    1
   117    14    13    2
   118    21    24    1
   119    21    20    1
   120    15    16    1
   121    15    12    1
   122    13    12    1
   123    63    62    2
   124    61    62    1
   125    12    11    1
   126   141   140    1
   127   140   139    1
   128   139   138    1
   129   138   137    1
   130   136   135    2
   131   137   134    1
   132   134   135    1
   133   134   133    1
