@<TRIPOS>MOLECULE
tmp/1h8pB00.pdb
 99 100 0 0 0
SMALL
GASTEIGER

@<TRIPOS>ATOM
      1  N          5.7670   35.0480   16.5440 N.3     9  TYR9       -0.1227
      2  CA         7.1800   34.9370   16.2240 C.3     9  TYR9        0.1736
      3  C          7.8340   36.2720   16.5540 C.2     9  TYR9        0.2595
      4  O          7.4940   37.3010   15.9690 O.2     9  TYR9       -0.2718
      5  CB         7.3530   34.6210   14.7380 C.3     9  TYR9        0.0548
      6  CG         8.7890   34.6160   14.2660 C.ar    9  TYR9       -0.0200
      7  CD1        9.6870   33.6460   14.7100 C.ar    9  TYR9       -0.0009
      8  CD2        9.2430   35.5690   13.3590 C.ar    9  TYR9       -0.0009
      9  CE1       11.0050   33.6210   14.2550 C.ar    9  TYR9        0.0417
     10  CE2       10.5580   35.5580   12.8970 C.ar    9  TYR9        0.0417
     11  CZ        11.4330   34.5790   13.3470 C.ar    9  TYR9        0.1957
     12  OH        12.7230   34.5530   12.8710 O.3     9  TYR9       -0.2866
     13  N          8.7700   36.2500   17.4950 N.am   10  ARG10      -0.1980
     14  CA         9.4610   37.4610   17.9210 C.3    10  ARG10       0.1597
     15  C          8.4390   38.5230   18.3190 C.2    10  ARG10       0.2287
     16  O          8.5170   39.6730   17.8920 O.2    10  ARG10      -0.2864
     17  CB        10.3690   37.9830   16.8030 C.3    10  ARG10       0.0334
     18  CG        11.2910   36.9240   16.2260 C.3    10  ARG10       0.0492
     19  CD        12.4060   37.5130   15.3680 C.3    10  ARG10       0.2205
     20  NE        13.4860   38.0690   16.1810 N.pl3  10  ARG10      -0.0865
     21  CZ        13.5280   39.3150   16.6440 C.cat  10  ARG10       0.5346
     22  NH1       12.5490   40.1670   16.3720 N.pl3  10  ARG10       0.1354
     23  NH2       14.5490   39.7030   17.3980 N.pl3  10  ARG10       0.1354
     24  N          8.1960   37.6970    6.8490 N.3    20  HIS20      -0.1226
     25  CA         8.9160   38.3100    7.9620 C.3    20  HIS20       0.1752
     26  C         10.2150   37.5260    8.1490 C.2    20  HIS20       0.2597
     27  O         10.1830   36.3210    8.3970 O.2    20  HIS20      -0.2718
     28  CB         8.0640   38.2150    9.2340 C.3    20  HIS20       0.0759
     29  CG         8.7160   38.7850   10.4590 C.ar   20  HIS20       0.0818
     30  ND1        8.1870   38.6190   11.7230 N.ar   20  HIS20      -0.2268
     31  CD2        9.8410   39.5220   10.6170 C.ar   20  HIS20       0.1154
     32  CE1        8.9600   39.2280   12.6050 C.ar   20  HIS20       0.1986
     33  NE2        9.9700   39.7840   11.9610 N.ar   20  HIS20      -0.2212
     34  N         11.3480   38.2100    8.0150 N.am   21  GLY21      -0.1942
     35  CA        12.6410   37.5640    8.1810 C.3    21  GLY21       0.2014
     36  C         12.9230   36.4440    7.1930 C.2    21  GLY21       0.2639
     37  O         13.7270   35.5540    7.4720 O.2    21  GLY21      -0.2714
     38  N         12.2820   36.4870    6.0320 N.am   22  SER22      -0.1949
     39  CA        12.4700   35.4440    5.0280 C.3    22  SER22       0.1924
     40  C         12.3400   35.9460    3.5940 C.2    22  SER22       0.2314
     41  O         11.7770   37.0130    3.3440 O.2    22  SER22      -0.2863
     42  CB        11.4500   34.3260    5.2620 C.3    22  SER22       0.2116
     43  OG        11.6010   33.2740    4.3270 O.3    22  SER22      -0.2180
     44  N          6.5530   31.6790    4.9740 N.3    26  TRP26      -0.1241
     45  CA         6.6940   30.5520    5.8840 C.3    26  TRP26       0.1605
     46  C          5.6930   30.6480    7.0260 C.2    26  TRP26       0.2264
     47  O          5.0680   31.6940    7.2480 O.2    26  TRP26      -0.2867
     48  CB         8.1110   30.5070    6.4650 C.3    26  TRP26       0.0550
     49  CG         8.4490   31.7050    7.3020 C.ar   26  TRP26       0.0003
     50  CD1        8.8770   32.9260    6.8600 C.ar   26  TRP26       0.0946
     51  CD2        8.3330   31.8120    8.7240 C.ar   26  TRP26       0.0152
     52  NE1        9.0330   33.7860    7.9230 N.ar   26  TRP26      -0.2442
     53  CE2        8.7050   33.1270    9.0770 C.ar   26  TRP26       0.0810
     54  CE3        7.9470   30.9220    9.7350 C.ar   26  TRP26       0.0012
     55  CZ2        8.7020   33.5750   10.4020 C.ar   26  TRP26       0.0191
     56  CZ3        7.9450   31.3680   11.0520 C.ar   26  TRP26       0.0001
     57  CH2        8.3200   32.6810   11.3710 C.ar   26  TRP26       0.0015
     58  N          6.0430   30.1210   18.6600 N.3    33  TYR33      -0.1241
     59  CA         7.2140   29.6710   17.9200 C.3    33  TYR33       0.1605
     60  C          8.3250   29.0990   18.7920 C.2    33  TYR33       0.2264
     61  O          8.8090   29.7560   19.7140 O.2    33  TYR33      -0.2867
     62  CB         7.7820   30.8210   17.0930 C.3    33  TYR33       0.0534
     63  CG         8.9540   30.4160   16.2350 C.ar   33  TYR33      -0.0201
     64  CD1        8.7610   29.6810   15.0710 C.ar   33  TYR33      -0.0009
     65  CD2       10.2560   30.7720   16.5850 C.ar   33  TYR33      -0.0009
     66  CE1        9.8340   29.3130   14.2680 C.ar   33  TYR33       0.0417
     67  CE2       11.3370   30.4100   15.7910 C.ar   33  TYR33       0.0417
     68  CZ        11.1150   29.6840   14.6320 C.ar   33  TYR33       0.1957
     69  OH        12.1640   29.3490   13.8150 O.3    33  TYR33      -0.2866
     70  N         10.9540   27.2150   17.0700 N.3    35  GLY35      -0.1225
     71  CA        11.9060   26.7230   16.0890 C.3    35  GLY35       0.1811
     72  C         11.3860   25.8460   14.9670 C.2    35  GLY35       0.2280
     73  O         12.1450   25.4920   14.0610 O.2    35  GLY35      -0.2866
     74  N          9.1810   25.4340   11.7130 N.3    37  TRP37      -0.1241
     75  CA         8.5330   26.2050   10.6670 C.3    37  TRP37       0.1605
     76  C          8.7720   25.5250    9.3290 C.2    37  TRP37       0.2264
     77  O          9.6110   24.6300    9.2110 O.2    37  TRP37      -0.2867
     78  CB         9.1230   27.6130   10.6110 C.3    37  TRP37       0.0550
     79  CG        10.5980   27.6210   10.2910 C.ar   37  TRP37       0.0003
     80  CD1       11.6300   27.5340   11.1800 C.ar   37  TRP37       0.0946
     81  CD2       11.1960   27.6940    8.9870 C.ar   37  TRP37       0.0152
     82  NE1       12.8360   27.5510   10.5130 N.ar   37  TRP37      -0.2442
     83  CE2       12.5980   27.6480    9.1670 C.ar   37  TRP37       0.0810
     84  CE3       10.6840   27.7950    7.6850 C.ar   37  TRP37       0.0012
     85  CZ2       13.4950   27.7000    8.0900 C.ar   37  TRP37       0.0191
     86  CZ3       11.5760   27.8480    6.6150 C.ar   37  TRP37       0.0001
     87  CH2       12.9680   27.7990    6.8280 C.ar   37  TRP37       0.0015
     88  N          8.2290   26.3410    4.7540 N.3    39  TYR39      -0.1241
     89  CA         7.8360   27.2630    3.7040 C.3    39  TYR39       0.1605
     90  C          6.4200   26.8630    3.3360 C.2    39  TYR39       0.2264
     91  O          6.0650   25.6880    3.3950 O.2    39  TYR39      -0.2867
     92  CB         8.7670   27.1380    2.4970 C.3    39  TYR39       0.0534
     93  CG        10.1160   27.7520    2.7640 C.ar   39  TYR39      -0.0201
     94  CD1       10.2180   29.0670    3.2120 C.ar   39  TYR39      -0.0009
     95  CD2       11.2900   27.0130    2.6060 C.ar   39  TYR39      -0.0009
     96  CE1       11.4520   29.6370    3.5060 C.ar   39  TYR39       0.0417
     97  CE2       12.5340   27.5740    2.8970 C.ar   39  TYR39       0.0417
     98  CZ        12.6060   28.8840    3.3480 C.ar   39  TYR39       0.1957
     99  OH        13.8260   29.4430    3.6590 O.3    39  TYR39      -0.2866
@<TRIPOS>BOND
     1    92    93    1
     2    92    89    1
     3    95    93   ar
     4    95    97   ar
     5    93    94   ar
     6    97    98   ar
     7    94    96   ar
     8    90    91    2
     9    90    89    1
    10    41    40    2
    11    98    96   ar
    12    98    99    1
    13    40    39    1
    14    89    88    1
    15    43    42    1
    16    44    45    1
    17    39    42    1
    18    39    38    1
    19    45    48    1
    20    45    46    1
    21    38    36   am
    22    48    49    1
    23    86    87   ar
    24    86    84   ar
    25    87    85   ar
    26    24    25    1
    27    50    49   ar
    28    50    52   ar
    29    46    47    2
    30    36    37    2
    31    36    35    1
    32    49    51   ar
    33    84    81   ar
    34    52    53   ar
    35    25    26    1
    36    25    28    1
    37    34    26   am
    38    34    35    1
    39    85    83   ar
    40    26    27    2
    41    51    53   ar
    42    51    54   ar
    43    81    83   ar
    44    81    79   ar
    45    53    55   ar
    46    83    82   ar
    47    77    76    2
    48    28    29    1
    49    76    75    1
    50    54    56   ar
    51    79    78    1
    52    79    80   ar
    53    55    57   ar
    54    29    31   ar
    55    29    30   ar
    56    82    80   ar
    57    78    75    1
    58    31    33   ar
    59    75    74    1
    60    56    57   ar
    61    30    32   ar
    62    33    32   ar
    63    12    11    1
    64    10    11   ar
    65    10     8   ar
    66    11     9   ar
    67     8     6   ar
    68    69    68    1
    69    73    72    2
    70     9     7   ar
    71     6     7   ar
    72     6     5    1
    73    66    68   ar
    74    66    64   ar
    75    68    67   ar
    76     5     2    1
    77    72    71    1
    78    64    63   ar
    79    19    20    1
    80    19    18    1
    81    67    65   ar
    82     4     3    2
    83    71    70    1
    84    20    21    2
    85     2     1    1
    86     2     3    1
    87    18    17    1
    88    63    65   ar
    89    63    62    1
    90    22    21    1
    91     3    13   am
    92    21    23    1
    93    17    14    1
    94    62    59    1
    95    13    14    1
    96    16    15    2
    97    59    58    1
    98    59    60    1
    99    14    15    1
   100    60    61    2
