@<TRIPOS>MOLECULE
tmp/1h8sA00.pdb
 163 162 0 0 0
SMALL
GASTEIGER

@<TRIPOS>ATOM
      1  N         23.4180   47.9410   17.0570 N.3    36  TYR36      -0.1241
      2  CA        24.6780   47.3280   17.4990 C.3    36  TYR36       0.1605
      3  C         25.7900   48.3560   17.7520 C.2    36  TYR36       0.2264
      4  O         25.8150   49.4480   17.1630 O.2    36  TYR36      -0.2867
      5  CB        25.1890   46.3580   16.4380 C.3    36  TYR36       0.0534
      6  CG        24.2860   45.1950   16.1360 C.ar   36  TYR36      -0.0201
      7  CD1       24.4420   43.9730   16.8020 C.ar   36  TYR36      -0.0009
      8  CD2       23.2910   45.2940   15.1540 C.ar   36  TYR36      -0.0009
      9  CE1       23.6250   42.8670   16.4890 C.ar   36  TYR36       0.0417
     10  CE2       22.4740   44.2050   14.8380 C.ar   36  TYR36       0.0417
     11  CZ        22.6480   42.9930   15.5090 C.ar   36  TYR36       0.1957
     12  OH        21.8590   41.9140   15.1880 O.3    36  TYR36      -0.2866
     13  N         20.0390   47.5450   12.3030 N.3    89  GLN89      -0.1245
     14  CA        19.7720   46.4040   11.4610 C.3    89  GLN89       0.1566
     15  C         18.2800   46.1890   11.3480 C.2    89  GLN89       0.2260
     16  O         17.5160   46.3440   12.3180 O.2    89  GLN89      -0.2867
     17  CB        20.4040   45.1410   12.0230 C.3    89  GLN89       0.0367
     18  CG        20.2790   44.0000   11.0740 C.3    89  GLN89       0.0905
     19  CD        20.3060   42.6850   11.7650 C.2    89  GLN89       0.2608
     20  OE1       20.1150   41.6530   11.1380 O.2    89  GLN89      -0.2717
     21  NE2       20.5360   42.7010   13.0660 N.am   89  GLN89      -0.0878
     22  N         15.5170   43.3360   10.1540 N.3    91  TYR91      -0.1241
     23  CA        15.3290   41.9140    9.9060 C.3    91  TYR91       0.1605
     24  C         13.8570   41.5900    9.6450 C.2    91  TYR91       0.2264
     25  O         13.3630   40.5230   10.0150 O.2    91  TYR91      -0.2867
     26  CB        15.8910   41.0730   11.0690 C.3    91  TYR91       0.0534
     27  CG        15.3680   41.4230   12.4390 C.ar   91  TYR91      -0.0201
     28  CD1       14.2780   40.7520   12.9880 C.ar   91  TYR91      -0.0009
     29  CD2       15.9790   42.4220   13.1960 C.ar   91  TYR91      -0.0009
     30  CE1       13.8090   41.0710   14.2690 C.ar   91  TYR91       0.0417
     31  CE2       15.5240   42.7450   14.4700 C.ar   91  TYR91       0.0417
     32  CZ        14.4460   42.0770   15.0070 C.ar   91  TYR91       0.1957
     33  OH        14.0090   42.4200   16.2740 O.3    91  TYR91      -0.2866
     34  N         13.8930   39.9280    3.5460 N.3    94  TYR94      -0.1241
     35  CA        15.1370   39.7250    2.8210 C.3    94  TYR94       0.1605
     36  C         15.3130   40.6310    1.6020 C.2    94  TYR94       0.2264
     37  O         14.3510   40.9550    0.9120 O.2    94  TYR94      -0.2867
     38  CB        15.2390   38.2570    2.3920 C.3    94  TYR94       0.0534
     39  CG        15.4790   37.3020    3.5370 C.ar   94  TYR94      -0.0201
     40  CD1       14.8080   36.0870    3.6070 C.ar   94  TYR94      -0.0009
     41  CD2       16.3820   37.6070    4.5460 C.ar   94  TYR94      -0.0009
     42  CE1       15.0280   35.2000    4.6580 C.ar   94  TYR94       0.0417
     43  CE2       16.6060   36.7200    5.6090 C.ar   94  TYR94       0.0417
     44  CZ        15.9250   35.5220    5.6570 C.ar   94  TYR94       0.1957
     45  OH        16.1220   34.6530    6.7130 O.3    94  TYR94      -0.2866
     46  N         18.4120   41.0060    4.4660 N.3    96  LEU96      -0.1245
     47  CA        18.5590   41.7620    5.7070 C.3    96  LEU96       0.1561
     48  C         19.5010   42.8920    5.3320 C.2    96  LEU96       0.2260
     49  O         20.4710   42.6720    4.6050 O.2    96  LEU96      -0.2867
     50  CB        19.1810   40.8960    6.8080 C.3    96  LEU96       0.0270
     51  CG        18.5660   39.4950    7.0390 C.3    96  LEU96       0.0019
     52  CD1       19.0950   38.9000    8.3490 C.3    96  LEU96       0.0001
     53  CD2       17.0380   39.5910    7.1220 C.3    96  LEU96       0.0001
     54  N         21.5490   46.7830    6.5740 N.3    98  PHE98      -0.1241
     55  CA        22.0960   47.5480    7.6940 C.3    98  PHE98       0.1605
     56  C         22.2470   49.0210    7.3390 C.2    98  PHE98       0.2264
     57  O         22.3890   49.3950    6.1640 O.2    98  PHE98      -0.2867
     58  CB        23.5190   47.0650    8.0730 C.3    98  PHE98       0.0534
     59  CG        23.6260   45.6070    8.4780 C.ar   98  PHE98      -0.0203
     60  CD1       23.9510   44.6320    7.5440 C.ar   98  PHE98      -0.0042
     61  CD2       23.4740   45.2300    9.8040 C.ar   98  PHE98      -0.0042
     62  CE1       24.1290   43.3030    7.9290 C.ar   98  PHE98      -0.0003
     63  CE2       23.6470   43.8970   10.2010 C.ar   98  PHE98      -0.0003
     64  CZ        23.9760   42.9380    9.2620 C.ar   98  PHE98      -0.0000
     65  N         19.8800   30.0280   13.0120 N.3   141  TRP141     -0.1241
     66  CA        20.3900   30.4160   11.7130 C.3   141  TRP141      0.1605
     67  C         21.7970   30.9980   11.8440 C.2   141  TRP141      0.2264
     68  O         22.1470   31.6270   12.8450 O.2   141  TRP141     -0.2867
     69  CB        19.5110   31.5010   11.0810 C.3   141  TRP141      0.0550
     70  CG        18.1810   31.0450   10.5920 C.ar  141  TRP141      0.0003
     71  CD1       17.0590   30.8120   11.3430 C.ar  141  TRP141      0.0946
     72  CD2       17.8600   30.6610    9.2490 C.ar  141  TRP141      0.0152
     73  NE1       16.0630   30.2900   10.5440 N.ar  141  TRP141     -0.2442
     74  CE2       16.5300   30.1830    9.2580 C.ar  141  TRP141      0.0810
     75  CE3       18.5720   30.6620    8.0410 C.ar  141  TRP141      0.0012
     76  CZ2       15.8980   29.7070    8.1020 C.ar  141  TRP141      0.0191
     77  CZ3       17.9510   30.1920    6.8990 C.ar  141  TRP141      0.0001
     78  CH2       16.6230   29.7160    6.9370 C.ar  141  TRP141      0.0015
     79  N         24.2690   33.5850    9.9120 N.3   143  ASN143     -0.1240
     80  CA        24.3580   34.6190    8.8800 C.3   143  ASN143      0.1653
     81  C         25.8100   34.9480    8.5940 C.2   143  ASN143      0.2266
     82  O         26.6790   34.7520    9.4490 O.2   143  ASN143     -0.2867
     83  CB        23.6950   35.8990    9.3720 C.3   143  ASN143      0.1155
     84  CG        22.2290   35.7160    9.6660 C.2   143  ASN143      0.2627
     85  OD1       21.3950   35.9010    8.7970 O.2   143  ASN143     -0.2716
     86  ND2       21.9130   35.3360   10.8970 N.am  143  ASN143     -0.0877
     87  N         28.2650   38.1600    7.0460 N.3   145  VAL145     -0.1245
     88  CA        28.3090   39.5900    6.7670 C.3   145  VAL145      0.1561
     89  C         29.6910   40.0840    6.3190 C.2   145  VAL145      0.2260
     90  O         30.7240   39.7120    6.8850 O.2   145  VAL145     -0.2867
     91  CB        27.8860   40.3670    8.0520 C.3   145  VAL145      0.0252
     92  CG1       27.9760   41.8830    7.8270 C.3   145  VAL145      0.0019
     93  CG2       26.4690   39.9620    8.4630 C.3   145  VAL145      0.0019
     94  N         24.9070   42.1250    4.1710 N.3   155  TRP155     -0.1241
     95  CA        24.4950   40.7890    4.5710 C.3   155  TRP155      0.1605
     96  C         24.6030   39.9520    3.3190 C.2   155  TRP155      0.2264
     97  O         24.0360   40.3110    2.2830 O.2   155  TRP155     -0.2867
     98  CB        23.0480   40.7950    5.0580 C.3   155  TRP155      0.0550
     99  CG        22.4790   39.4310    5.3890 C.ar  155  TRP155      0.0003
    100  CD1       22.6070   38.7450    6.5670 C.ar  155  TRP155      0.0946
    101  CD2       21.5850   38.6650    4.5790 C.ar  155  TRP155      0.0152
    102  NE1       21.8300   37.6050    6.5460 N.ar  155  TRP155     -0.2442
    103  CE2       21.1910   37.5360    5.3380 C.ar  155  TRP155      0.0810
    104  CE3       21.0670   38.8260    3.2860 C.ar  155  TRP155      0.0012
    105  CZ2       20.2960   36.5790    4.8470 C.ar  155  TRP155      0.0191
    106  CZ3       20.1790   37.8730    2.8000 C.ar  155  TRP155      0.0001
    107  CH2       19.8010   36.7650    3.5840 C.ar  155  TRP155      0.0015
    108  N         22.1070   33.6590    4.8310 N.3   158  ASN158     -0.1240
    109  CA        22.0870   32.8560    6.0400 C.3   158  ASN158      0.1653
    110  C         21.7850   31.3950    5.7020 C.2   158  ASN158      0.2266
    111  O         21.5240   31.0490    4.5500 O.2   158  ASN158     -0.2867
    112  CB        21.1020   33.4170    7.0810 C.3   158  ASN158      0.1155
    113  CG        19.6630   33.5230    6.5800 C.2   158  ASN158      0.2627
    114  OD1       18.8250   34.1370    7.2460 O.2   158  ASN158     -0.2716
    115  ND2       19.3650   32.9310    5.4400 N.am  158  ASN158     -0.0877
    116  N         27.2700   35.1110   12.0390 N.3   205  ALA205     -0.1231
    117  CA        26.6000   35.5060   13.2540 C.3   205  ALA205      0.1694
    118  C         25.3000   34.7930   13.5540 C.2   205  ALA205      0.2592
    119  O         24.5090   34.4920   12.6790 O.2   205  ALA205     -0.2718
    120  CB        26.3780   37.0080   13.2490 C.3   205  ALA205      0.0304
    121  N         25.1230   34.5640   14.8410 N.am  206  ARG206     -0.1966
    122  CA        23.9840   33.9120   15.4280 C.3   206  ARG206      0.1729
    123  C         23.2470   35.0910   16.0760 C.2   206  ARG206      0.2616
    124  O         23.8750   36.0880   16.4340 O.2   206  ARG206     -0.2715
    125  CB        24.5150   32.9430   16.4920 C.3   206  ARG206      0.0348
    126  CG        23.7020   31.7200   16.7070 C.3   206  ARG206      0.0492
    127  CD        22.8190   31.9170   17.8940 C.3   206  ARG206      0.2205
    128  NE        23.3420   31.2460   19.0710 N.pl3 206  ARG206     -0.0865
    129  CZ        22.7700   31.3250   20.2600 C.cat 206  ARG206      0.5346
    130  NH1       21.6700   32.0530   20.4120 N.pl3 206  ARG206      0.1354
    131  NH2       23.2790   30.6560   21.2810 N.pl3 206  ARG206      0.1354
    132  N         21.9300   35.0010   16.2190 N.am  207  TRP207     -0.1960
    133  CA        21.2050   36.1030   16.8360 C.3   207  TRP207      0.1771
    134  C         21.8000   36.3650   18.2000 C.2   207  TRP207      0.2620
    135  O         21.6910   35.5300   19.0870 O.2   207  TRP207     -0.2715
    136  CB        19.7040   35.7820   16.9770 C.3   207  TRP207      0.0590
    137  CG        18.9400   36.8480   17.7100 C.ar  207  TRP207      0.0006
    138  CD1       18.7760   36.9580   19.0600 C.ar  207  TRP207      0.0946
    139  CD2       18.3340   38.0040   17.1370 C.ar  207  TRP207      0.0152
    140  NE1       18.1110   38.1170   19.3640 N.ar  207  TRP207     -0.2442
    141  CE2       17.8270   38.7790   18.1990 C.ar  207  TRP207      0.0810
    142  CE3       18.1750   38.4670   15.8300 C.ar  207  TRP207      0.0012
    143  CZ2       17.1690   39.9960   17.9880 C.ar  207  TRP207      0.0191
    144  CZ3       17.5270   39.6720   15.6180 C.ar  207  TRP207      0.0001
    145  CH2       17.0320   40.4230   16.6940 C.ar  207  TRP207      0.0015
    146  N         22.4550   37.5130   18.3500 N.am  208  GLY208     -0.1954
    147  CA        23.0360   37.8780   19.6330 C.3   208  GLY208      0.1869
    148  C         24.4840   37.4990   19.8820 C.2   208  GLY208      0.2309
    149  O         25.0040   37.7350   20.9770 O.2   208  GLY208     -0.2863
    150  N         28.0510   37.5890   17.4770 N.3   210  TRP210     -0.1241
    151  CA        28.7620   37.7250   16.2120 C.3   210  TRP210      0.1605
    152  C         30.1200   37.0900   16.3850 C.2   210  TRP210      0.2264
    153  O         30.7110   37.1830   17.4640 O.2   210  TRP210     -0.2867
    154  CB        28.9640   39.1850   15.8550 C.3   210  TRP210      0.0550
    155  CG        27.7640   39.8600   15.3160 C.ar  210  TRP210      0.0003
    156  CD1       26.5720   40.0480   15.9520 C.ar  210  TRP210      0.0946
    157  CD2       27.6550   40.5080   14.0440 C.ar  210  TRP210      0.0152
    158  NE1       25.7320   40.7860   15.1540 N.ar  210  TRP210     -0.2442
    159  CE2       26.3720   41.0810   13.9770 C.ar  210  TRP210      0.0810
    160  CE3       28.5190   40.6590   12.9560 C.ar  210  TRP210      0.0012
    161  CZ2       25.9300   41.8020   12.8660 C.ar  210  TRP210      0.0191
    162  CZ3       28.0790   41.3770   11.8500 C.ar  210  TRP210      0.0001
    163  CH2       26.7940   41.9390   11.8150 C.ar  210  TRP210      0.0015
@<TRIPOS>BOND
     1    37    36    2
     2    36    35    1
     3    97    96    2
     4    38    35    1
     5    38    39    1
     6   106   104   ar
     7   106   107   ar
     8    35    34    1
     9   104   101   ar
    10    96    95    1
    11    39    40   ar
    12    39    41   ar
    13   107   105   ar
    14    40    42   ar
    15    94    95    1
    16    46    47    1
    17    41    43   ar
    18   111   110    2
    19    95    98    1
    20   101   103   ar
    21   101    99   ar
    22    49    48    2
    23    42    44   ar
    24   108   109    1
    25   105   103   ar
    26    98    99    1
    27    48    47    1
    28   103   102   ar
    29    99   100   ar
    30   115   113   am
    31    43    44   ar
    32    44    45    1
    33   110   109    1
    34    47    50    1
    35   109   112    1
    36    57    56    2
    37    89    88    1
    38    89    90    2
    39   102   100   ar
    40    54    55    1
    41   113   112    1
    42   113   114    2
    43    88    87    1
    44    88    91    1
    45    50    51    1
    46    77    78   ar
    47    77    75   ar
    48    78    76   ar
    49    51    53    1
    50    51    52    1
    51    56    55    1
    52    60    62   ar
    53    60    59   ar
    54    55    58    1
    55    92    91    1
    56    62    64   ar
    57    75    72   ar
    58    91    93    1
    59    58    59    1
    60    76    74   ar
    61    59    61   ar
    62    81    80    1
    63    81    82    2
    64    85    84    2
    65    80    83    1
    66    80    79    1
    67    72    74   ar
    68    72    70   ar
    69    74    73   ar
    70    64    63   ar
    71    83    84    1
    72    24    23    1
    73    24    25    2
    74    84    86   am
    75    61    63   ar
    76    23    22    1
    77    23    26    1
    78    73    71   ar
    79    70    69    1
    80    70    71   ar
    81    26    27    1
    82    18    19    1
    83    18    17    1
    84    69    66    1
    85    20    19    2
    86    15    14    1
    87    15    16    2
    88    14    17    1
    89    14    13    1
    90    66    67    1
    91    66    65    1
    92    19    21   am
    93   163   162   ar
    94   163   161   ar
    95    67    68    2
    96   162   160   ar
    97   116   117    1
    98    27    28   ar
    99    27    29   ar
   100   119   118    2
   101   161   159   ar
   102   160   157   ar
   103    28    30   ar
   104    29    31   ar
   105   120   117    1
   106   117   118    1
   107   118   121   am
   108   159   157   ar
   109   159   158   ar
   110   157   155   ar
   111    30    32   ar
   112    31    32   ar
   113    10     8   ar
   114    10    11   ar
   115   121   122    1
   116    32    33    1
   117   158   156   ar
   118     8     6   ar
   119    12    11    1
   120   155   154    1
   121   155   156   ar
   122   122   123    1
   123   122   125    1
   124    11     9   ar
   125   144   142   ar
   126   144   145   ar
   127   142   139   ar
   128   154   151    1
   129   123   132   am
   130   123   124    2
   131     6     5    1
   132     6     7   ar
   133   151   152    1
   134   151   150    1
   135   132   133    1
   136   152   153    2
   137     5     2    1
   138     9     7   ar
   139   125   126    1
   140   145   143   ar
   141   126   127    1
   142   133   136    1
   143   133   134    1
   144   136   137    1
   145     1     2    1
   146   139   137   ar
   147   139   141   ar
   148     4     3    2
   149     2     3    1
   150   137   138   ar
   151   127   128    1
   152   143   141   ar
   153   141   140   ar
   154   134   146   am
   155   134   135    2
   156   146   147    1
   157   138   140   ar
   158   128   129    2
   159   147   148    1
   160   148   149    2
   161   129   130    1
   162   129   131    1
