@<TRIPOS>MOLECULE
tmp/1h8tA00.pdb
 187 175 0 0 0
SMALL
GASTEIGER

@<TRIPOS>ATOM
      1  N         92.5490   14.6530  469.3930 N.3    95  ILE95      -0.1231
      2  CA        91.2210   14.1270  469.2140 C.3    95  ILE95       0.1692
      3  C         91.1090   12.6110  469.2280 C.2    95  ILE95       0.2593
      4  O         91.8380   11.9010  468.5290 O.2    95  ILE95      -0.2718
      5  CB        90.6490   14.7170  467.9510 C.3    95  ILE95       0.0266
      6  CG1       90.7190   16.2390  468.0840 C.3    95  ILE95       0.0019
      7  CG2       89.2240   14.2850  467.7560 C.3    95  ILE95       0.0020
      8  CD1       90.4160   16.9690  466.8050 C.3    95  ILE95       0.0001
      9  N         90.1920   12.1250  470.0560 N.am   96  SER96      -0.1938
     10  CA        89.9140   10.6970  470.1840 C.3    96  SER96       0.2055
     11  C         88.7260   10.5660  471.1250 C.2    96  SER96       0.2642
     12  O         88.4170   11.5000  471.8590 O.2    96  SER96      -0.2714
     13  CB        91.1060    9.9740  470.7870 C.3    96  SER96       0.2130
     14  OG        90.8410    9.6350  472.1350 O.3    96  SER96      -0.2179
     15  N         88.0580    9.4230  471.1160 N.am   97  ALA97      -0.1977
     16  CA        86.9260    9.2320  472.0220 C.3    97  ALA97       0.1597
     17  C         87.3300    8.1970  473.0520 C.2    97  ALA97       0.2287
     18  O         86.4970    7.5020  473.6400 O.2    97  ALA97      -0.2864
     19  CB        85.7600    8.7370  471.2720 C.3    97  ALA97       0.0319
     20  N         80.7130    3.1080  471.7590 N.3   107  LEU107     -0.1245
     21  CA        81.2780    2.8870  470.4290 C.3   107  LEU107      0.1561
     22  C         81.8860    1.4940  470.2460 C.2   107  LEU107      0.2260
     23  O         81.6780    0.8380  469.2060 O.2   107  LEU107     -0.2867
     24  CB        82.3550    3.9270  470.1320 C.3   107  LEU107      0.0270
     25  CG        81.8380    5.3480  470.0330 C.3   107  LEU107      0.0019
     26  CD1       82.9740    6.3050  469.9740 C.3   107  LEU107      0.0001
     27  CD2       80.9860    5.4620  468.7970 C.3   107  LEU107      0.0001
     28  N         82.7270    1.8700  462.6120 N.3   113  VAL113     -0.1245
     29  CA        81.6180    2.7970  462.5880 C.3   113  VAL113      0.1561
     30  C         81.9270    3.9200  461.6200 C.2   113  VAL113      0.2260
     31  O         83.0890    4.2710  461.3950 O.2   113  VAL113     -0.2867
     32  CB        81.3360    3.3830  463.9760 C.3   113  VAL113      0.0252
     33  CG1       80.7180    2.3330  464.8460 C.3   113  VAL113      0.0019
     34  CG2       82.6190    3.8740  464.6000 C.3   113  VAL113      0.0019
     35  N         80.3460    7.8510  460.5420 N.3   115  PHE115     -0.1241
     36  CA        79.4040    8.9070  460.8620 C.3   115  PHE115      0.1605
     37  C         79.9250   10.3220  460.8680 C.2   115  PHE115      0.2264
     38  O         81.1540   10.6130  460.9360 O.2   115  PHE115     -0.2867
     39  CB        78.7380    8.6430  462.2330 C.3   115  PHE115      0.0534
     40  CG        79.7240    8.4280  463.3820 C.ar  115  PHE115     -0.0203
     41  CD1       80.6100    9.4260  463.7730 C.ar  115  PHE115     -0.0042
     42  CD2       79.8030    7.1940  464.0320 C.ar  115  PHE115     -0.0042
     43  CE1       81.5780    9.1890  464.7880 C.ar  115  PHE115     -0.0003
     44  CE2       80.7610    6.9490  465.0430 C.ar  115  PHE115     -0.0003
     45  CZ        81.6500    7.9560  465.4130 C.ar  115  PHE115     -0.0000
     46  N         79.7190   13.9660  462.9260 N.3   117  VAL117     -0.1245
     47  CA        79.7180   14.2570  464.3540 C.3   117  VAL117      0.1561
     48  C         79.3280   15.6750  464.6460 C.2   117  VAL117      0.2260
     49  O         79.8610   16.6000  464.0240 O.2   117  VAL117     -0.2867
     50  CB        81.1200   14.0910  464.9880 C.3   117  VAL117      0.0252
     51  CG1       81.0230   14.1470  466.4770 C.3   117  VAL117      0.0019
     52  CG2       81.7270   12.7970  464.5770 C.3   117  VAL117      0.0019
     53  N         79.7460   18.3560  467.2470 N.3   119  VAL119     -0.1245
     54  CA        80.5680   18.7420  468.3920 C.3   119  VAL119      0.1561
     55  C         79.9980   19.9790  469.0960 C.2   119  VAL119      0.2260
     56  O         79.6910   20.9840  468.4470 O.2   119  VAL119     -0.2867
     57  CB        81.9850   19.0600  467.9620 C.3   119  VAL119      0.0252
     58  CG1       82.8280   19.2640  469.1870 C.3   119  VAL119      0.0019
     59  CG2       82.5270   17.9390  467.0810 C.3   119  VAL119      0.0019
     60  N         80.6570   22.4370  472.6270 N.3   121  PHE121     -0.1241
     61  CA        81.6250   22.7640  473.6670 C.3   121  PHE121      0.1605
     62  C         80.9650   23.4920  474.8180 C.2   121  PHE121      0.2264
     63  O         80.1890   24.4250  474.5790 O.2   121  PHE121     -0.2867
     64  CB        82.6540   23.7250  473.1200 C.3   121  PHE121      0.0534
     65  CG        83.6280   23.1080  472.2030 C.ar  121  PHE121     -0.0203
     66  CD1       84.7350   22.4450  472.6980 C.ar  121  PHE121     -0.0042
     67  CD2       83.4670   23.2200  470.8350 C.ar  121  PHE121     -0.0042
     68  CE1       85.6810   21.9010  471.8370 C.ar  121  PHE121     -0.0003
     69  CE2       84.4030   22.6850  469.9650 C.ar  121  PHE121     -0.0003
     70  CZ        85.5140   22.0240  470.4690 C.ar  121  PHE121     -0.0000
     71  N         88.7830   28.5270  469.9520 N.3   144  ILE144     -0.1245
     72  CA        89.0090   27.0790  469.8840 C.3   144  ILE144      0.1561
     73  C         89.5570   26.9040  468.4750 C.2   144  ILE144      0.2260
     74  O         88.9680   27.4390  467.5280 O.2   144  ILE144     -0.2867
     75  CB        87.6900   26.3190  470.0080 C.3   144  ILE144      0.0252
     76  CG1       87.0460   26.6160  471.3530 C.3   144  ILE144      0.0019
     77  CG2       87.9160   24.8480  469.9080 C.3   144  ILE144      0.0019
     78  CD1       85.6490   26.0580  471.4380 C.3   144  ILE144      0.0001
     79  N         91.2640   24.0850  465.5440 N.3   146  TYR146     -0.1241
     80  CA        91.5270   22.6980  465.2020 C.3   146  TYR146      0.1605
     81  C         92.7430   22.5700  464.3000 C.2   146  TYR146      0.2264
     82  O         92.8330   23.1970  463.2510 O.2   146  TYR146     -0.2867
     83  CB        90.2990   22.1180  464.5310 C.3   146  TYR146      0.0534
     84  CG        90.5280   20.7760  463.9060 C.ar  146  TYR146     -0.0201
     85  CD1       90.9590   19.6950  464.6670 C.ar  146  TYR146     -0.0009
     86  CD2       90.3280   20.5870  462.5340 C.ar  146  TYR146     -0.0009
     87  CE1       91.1850   18.4600  464.0710 C.ar  146  TYR146      0.0417
     88  CE2       90.5550   19.3500  461.9280 C.ar  146  TYR146      0.0417
     89  CZ        90.9820   18.3030  462.7040 C.ar  146  TYR146      0.1957
     90  OH        91.2300   17.1010  462.1140 O.3   146  TYR146     -0.2866
     91  N         79.1730   22.7360  466.1120 N.3   181  MET181     -0.1245
     92  CA        79.3700   22.5690  464.6560 C.3   181  MET181      0.1570
     93  C         79.3930   21.1200  464.2720 C.2   181  MET181      0.2261
     94  O         79.6500   20.2560  465.0960 O.2   181  MET181     -0.2867
     95  CB        80.6560   23.1980  464.1410 C.3   181  MET181      0.0387
     96  CG        81.5230   23.7300  465.2200 C.3   181  MET181      0.0595
     97  SD        82.5960   22.4610  465.6130 S.3   181  MET181     -0.1393
     98  CE        83.7420   22.8180  464.4470 C.3   181  MET181      0.0692
     99  N         80.9850   18.0610  461.9080 N.3   183  ILE183     -0.1245
    100  CA        82.2120   17.6050  461.2330 C.3   183  ILE183      0.1561
    101  C         81.7970   16.3740  460.4130 C.2   183  ILE183      0.2260
    102  O         81.1070   15.4900  460.9150 O.2   183  ILE183     -0.2867
    103  CB        83.3160   17.1580  462.2290 C.3   183  ILE183      0.0252
    104  CG1       84.1730   18.3450  462.6100 C.3   183  ILE183      0.0019
    105  CG2       84.2400   16.1810  461.5780 C.3   183  ILE183      0.0019
    106  CD1       83.3750   19.4350  463.2440 C.3   183  ILE183      0.0001
    107  N         85.4390   11.9570  458.5450 N.3   186  ILE186     -0.1245
    108  CA        86.7530   12.4010  458.1820 C.3   186  ILE186      0.1561
    109  C         87.8560   11.3800  457.9480 C.2   186  ILE186      0.2260
    110  O         89.0020   11.7340  457.6590 O.2   186  ILE186     -0.2867
    111  CB        87.1180   13.4160  459.2670 C.3   186  ILE186      0.0252
    112  CG1       87.4930   14.6860  458.5940 C.3   186  ILE186      0.0019
    113  CG2       88.1740   12.9070  460.2790 C.3   186  ILE186      0.0019
    114  CD1       88.0340   15.6380  459.6150 C.3   186  ILE186      0.0001
    115  N         85.5690    4.3510  460.3880 N.3   192  TYR192     -0.1227
    116  CA        86.4990    4.5610  461.4920 C.3   192  TYR192      0.1736
    117  C         86.6530    3.1490  462.0680 C.2   192  TYR192      0.2596
    118  O         85.6840    2.3790  462.1410 O.2   192  TYR192     -0.2718
    119  CB        85.9140    5.4860  462.5750 C.3   192  TYR192      0.0548
    120  CG        85.7540    6.9680  462.2460 C.ar  192  TYR192     -0.0200
    121  CD1       86.8350    7.7720  461.8590 C.ar  192  TYR192     -0.0009
    122  CD2       84.5080    7.5770  462.3580 C.ar  192  TYR192     -0.0009
    123  CE1       86.6520    9.1690  461.5910 C.ar  192  TYR192      0.0417
    124  CE2       84.3240    8.9410  462.0920 C.ar  192  TYR192      0.0417
    125  CZ        85.3890    9.7290  461.7090 C.ar  192  TYR192      0.1957
    126  OH        85.1250   11.0560  461.4210 O.3   192  TYR192     -0.2866
    127  N         87.8610    2.7980  462.4740 N.am  193  SER193     -0.1938
    128  CA        88.1010    1.4680  463.0240 C.3   193  SER193      0.2055
    129  C         88.2660    1.5440  464.5580 C.2   193  SER193      0.2643
    130  O         89.1290    2.2450  465.0540 O.2   193  SER193     -0.2714
    131  CB        89.3590    0.9400  462.3640 C.3   193  SER193      0.2130
    132  OG        89.5800   -0.3960  462.7020 O.3   193  SER193     -0.2179
    133  N         87.4450    0.8500  465.3280 N.am  194  ASN194     -0.1971
    134  CA        87.5710    0.9350  466.7920 C.3   194  ASN194      0.1688
    135  C         88.6080    0.0020  467.4140 C.2   194  ASN194      0.2292
    136  O         89.0370    0.2170  468.5510 O.2   194  ASN194     -0.2864
    137  CB        86.2200    0.6770  467.4500 C.3   194  ASN194      0.1181
    138  CG        85.2540    1.8300  467.2670 C.2   194  ASN194      0.2629
    139  OD1       85.6740    2.9880  467.1360 O.2   194  ASN194     -0.2716
    140  ND2       83.9540    1.5300  467.2780 N.am  194  ASN194     -0.0877
    141  N         94.7970    0.4860  468.1400 N.3   210  TYR210     -0.1241
    142  CA        94.0630    1.6960  467.7920 C.3   210  TYR210      0.1605
    143  C         94.9200    2.8760  467.4600 C.2   210  TYR210      0.2264
    144  O         94.6490    3.5820  466.4910 O.2   210  TYR210     -0.2867
    145  CB        93.0950    2.1410  468.9080 C.3   210  TYR210      0.0534
    146  CG        92.3320    3.4390  468.5760 C.ar  210  TYR210     -0.0201
    147  CD1       91.2160    3.4360  467.7190 C.ar  210  TYR210     -0.0009
    148  CD2       92.7460    4.6740  469.0890 C.ar  210  TYR210     -0.0009
    149  CE1       90.5330    4.6300  467.3770 C.ar  210  TYR210      0.0417
    150  CE2       92.0630    5.8750  468.7540 C.ar  210  TYR210      0.0417
    151  CZ        90.9620    5.8420  467.9020 C.ar  210  TYR210      0.1957
    152  OH        90.2970    7.0160  467.5940 O.3   210  TYR210     -0.2866
    153  N         94.0020   12.2660  463.8390 N.3   216  MET216     -0.1245
    154  CA        92.9500   13.1370  463.3920 C.3   216  MET216      0.1570
    155  C         93.2380   14.5380  463.8420 C.2   216  MET216      0.2261
    156  O         92.3610   15.3920  463.8510 O.2   216  MET216     -0.2867
    157  CB        91.6310   12.6360  463.9280 C.3   216  MET216      0.0387
    158  CG        91.4260   11.2550  463.4130 C.3   216  MET216      0.0595
    159  SD        89.8030   10.6710  463.5350 S.3   216  MET216     -0.1393
    160  CE        89.7630   10.1670  465.3210 C.3   216  MET216      0.0692
    161  N         93.2760   19.7610  469.1310 N.3   219  ILE219     -0.1245
    162  CA        92.5680   20.9980  469.4080 C.3   219  ILE219      0.1561
    163  C         93.3250   21.8710  470.3790 C.2   219  ILE219      0.2260
    164  O         93.8860   21.3600  471.3360 O.2   219  ILE219     -0.2867
    165  CB        91.1850   20.7210  469.9970 C.3   219  ILE219      0.0252
    166  CG1       90.3480   20.0180  468.9420 C.3   219  ILE219      0.0019
    167  CG2       90.4990   22.0320  470.4340 C.3   219  ILE219      0.0019
    168  CD1       88.9440   19.8280  469.3350 C.3   219  ILE219      0.0001
    169  N         84.3010   19.1910  475.9090 N.3   238  MET238     -0.1245
    170  CA        83.8980   18.8890  474.5420 C.3   238  MET238      0.1570
    171  C         82.9790   17.6790  474.4800 C.2   238  MET238      0.2261
    172  O         83.2570   16.6220  475.0850 O.2   238  MET238     -0.2867
    173  CB        85.1320   18.6450  473.6750 C.3   238  MET238      0.0387
    174  CG        84.8380   17.9280  472.3660 C.3   238  MET238      0.0595
    175  SD        86.3190   17.6720  471.3320 S.3   238  MET238     -0.1393
    176  CE        86.3380   19.1360  470.6470 C.3   238  MET238      0.0692
    177  N         80.6220   15.0200  471.9610 N.3   240  PHE240     -0.1241
    178  CA        80.4420   14.3820  470.6530 C.3   240  PHE240      0.1605
    179  C         79.0570   13.7410  470.5340 C.2   240  PHE240      0.2264
    180  O         78.6540   12.9710  471.4190 O.2   240  PHE240     -0.2867
    181  CB        81.4230   13.2280  470.5000 C.3   240  PHE240      0.0534
    182  CG        82.7470   13.6020  469.9500 C.ar  240  PHE240     -0.0203
    183  CD1       83.1340   14.9190  469.8440 C.ar  240  PHE240     -0.0042
    184  CD2       83.6290   12.6040  469.5370 C.ar  240  PHE240     -0.0042
    185  CE1       84.3920   15.2470  469.3300 C.ar  240  PHE240     -0.0003
    186  CE2       84.8860   12.9060  469.0230 C.ar  240  PHE240     -0.0003
    187  CZ        85.2700   14.2370  468.9170 C.ar  240  PHE240     -0.0000
@<TRIPOS>BOND
     1   110   109    2
     2   109   108    1
     3   108   107    1
     4   108   111    1
     5   112   111    1
     6   112   114    1
     7   111   113    1
     8   115   116    1
     9   101   102    2
    10   101   100    1
    11    35    36    1
    12    36    37    1
    13    36    39    1
    14    37    38    2
    15   100    99    1
    16   100   103    1
    17    31    30    2
    18   126   125    1
    19   116   117    1
    20   116   119    1
    21   105   103    1
    22   123   125   ar
    23   123   121   ar
    24    30    29    1
    25   125   124   ar
    26   121   120   ar
    27    88    86   ar
    28    88    89   ar
    29   117   118    2
    30   117   127   am
    31   124   122   ar
    32    90    89    1
    33   103   104    1
    34    39    40    1
    35   120   122   ar
    36   120   119    1
    37   131   132    1
    38   131   128    1
    39   127   128    1
    40    86    84   ar
    41    29    28    1
    42    29    32    1
    43   104   106    1
    44    89    87   ar
    45    46    47    1
    46   128   129    1
    47    82    81    2
    48    40    41   ar
    49    40    42   ar
    50   154   153    1
    51   154   155    1
    52   154   157    1
    53   158   159    1
    54   158   157    1
    55   159   160    1
    56    41    43   ar
    57   155   156    2
    58    84    83    1
    59    84    85   ar
    60    32    34    1
    61    32    33    1
    62    49    48    2
    63    42    44   ar
    64    87    85   ar
    65    95    92    1
    66    95    96    1
    67    93    92    1
    68    93    94    2
    69    81    80    1
    70    47    48    1
    71    47    50    1
    72    98    97    1
    73    83    80    1
    74   129   130    2
    75   129   133   am
    76    52    50    1
    77    92    91    1
    78    43    45   ar
    79    50    51    1
    80    44    45   ar
    81    80    79    1
    82    96    97    1
    83   133   134    1
    84   144   143    2
    85   134   135    1
    86   134   137    1
    87     8     6    1
    88    59    57    1
    89   139   138    2
    90    53    54    1
    91   138   140   am
    92   138   137    1
    93   149   147   ar
    94   149   151   ar
    95   135   136    2
    96   143   142    1
    97    74    73    2
    98   152   151    1
    99   147   146   ar
   100     7     5    1
   101   142   141    1
   102   142   145    1
   103   151   150   ar
   104     5     6    1
   105     5     2    1
   106    57    54    1
   107    57    58    1
   108    54    55    1
   109    56    55    2
   110    73    72    1
   111     4     3    2
   112   146   145    1
   113   146   148   ar
   114   150   148   ar
   115    27    25    1
   116   187   186   ar
   117   187   185   ar
   118   166   168    1
   119   166   165    1
   120   186   184   ar
   121   161   162    1
   122    23    22    2
   123     2     3    1
   124     2     1    1
   125     3     9   am
   126   185   183   ar
   127   162   165    1
   128   162   163    1
   129   184   182   ar
   130   183   182   ar
   131    72    71    1
   132    72    75    1
   133    77    75    1
   134   182   181    1
   135    69    70   ar
   136    69    67   ar
   137    26    25    1
   138   165   167    1
   139    75    76    1
   140    25    24    1
   141     9    10    1
   142    24    21    1
   143    10    13    1
   144    10    11    1
   145    22    21    1
   146   163   164    2
   147    21    20    1
   148    70    68   ar
   149   181   178    1
   150   179   178    1
   151   179   180    2
   152   176   175    1
   153   178   177    1
   154    13    14    1
   155    67    65   ar
   156    15    11   am
   157    15    16    1
   158    11    12    2
   159    19    16    1
   160   175   174    1
   161    76    78    1
   162    68    66   ar
   163    16    17    1
   164    65    66   ar
   165    65    64    1
   166   174   173    1
   167    60    61    1
   168    17    18    2
   169    64    61    1
   170    61    62    1
   171   173   170    1
   172   171   170    1
   173   171   172    2
   174   170   169    1
   175    63    62    2
