@<TRIPOS>MOLECULE
tmp/1h8yB00.pdb
 144 137 0 0 0
SMALL
GASTEIGER

@<TRIPOS>ATOM
      1  N         44.3130  127.8040   77.5100 N.3    47  ALA47      -0.1231
      2  CA        45.1630  127.9340   76.3530 C.3    47  ALA47       0.1694
      3  C         44.4370  127.4370   75.1100 C.2    47  ALA47       0.2592
      4  O         43.2610  127.7800   74.9420 O.2    47  ALA47      -0.2718
      5  CB        46.5490  127.2800   76.5140 C.3    47  ALA47       0.0304
      6  N         45.0390  126.5370   74.2760 N.am   48  SER48      -0.1952
      7  CA        44.3710  126.1550   73.0460 C.3    48  SER48       0.1924
      8  C         43.1760  125.2360   73.2700 C.2    48  SER48       0.2314
      9  O         42.4410  125.0700   72.2940 O.2    48  SER48      -0.2863
     10  CB        45.2320  125.3850   72.0010 C.3    48  SER48       0.2116
     11  OG        46.3960  126.2220   71.6840 O.3    48  SER48      -0.2180
     12  N         39.8430  126.4370   72.0740 N.3    51  LYS51      -0.1245
     13  CA        39.3050  126.3930   70.6770 C.3    51  LYS51       0.1561
     14  C         38.0470  125.5670   70.5950 C.2    51  LYS51       0.2260
     15  O         37.1920  125.7480   69.7130 O.2    51  LYS51      -0.2867
     16  CB        40.3600  125.8610   69.7560 C.3    51  LYS51       0.0271
     17  CG        41.5570  126.8470   69.5910 C.3    51  LYS51       0.0035
     18  CD        42.3550  126.1580   68.4240 C.3    51  LYS51       0.0206
     19  CE        43.3540  127.1770   67.9190 C.3    51  LYS51       0.1093
     20  NZ        43.7830  128.0350   69.0720 N.3    51  LYS51      -0.1314
     21  N         53.4760  131.1690   63.0350 N.3    80  MET80      -0.1245
     22  CA        53.8440  129.8340   62.6490 C.3    80  MET80       0.1570
     23  C         53.7120  129.6240   61.1490 C.2    80  MET80       0.2261
     24  O         52.6180  129.9370   60.6480 O.2    80  MET80      -0.2867
     25  CB        52.8800  128.8030   63.3370 C.3    80  MET80       0.0387
     26  CG        53.1460  128.7540   64.8050 C.3    80  MET80       0.0595
     27  SD        52.8350  127.1850   65.6190 S.3    80  MET80      -0.1393
     28  CE        53.4740  127.5990   67.2730 C.3    80  MET80       0.0692
     29  N         53.1030  126.8730   59.6910 N.3    82  GLN82      -0.1231
     30  CA        51.9110  126.0450   59.6250 C.3    82  GLN82       0.1698
     31  C         50.6160  126.8490   59.6390 C.2    82  GLN82       0.2592
     32  O         49.5450  126.3230   59.2840 O.2    82  GLN82      -0.2718
     33  CB        51.9000  124.9880   60.7090 C.3    82  GLN82       0.0381
     34  CG        51.9940  125.4590   62.1580 C.3    82  GLN82       0.0905
     35  CD        51.6190  124.2680   63.0750 C.2    82  GLN82       0.2608
     36  OE1       52.0370  123.1400   62.7670 O.2    82  GLN82      -0.2717
     37  NE2       50.8390  124.4990   64.1070 N.am   82  GLN82      -0.0878
     38  N         50.6390  128.1170   60.0640 N.am   83  TRP83      -0.1976
     39  CA        49.4320  128.9280   60.0170 C.3    83  TRP83       0.1640
     40  C         49.3120  129.6820   58.6830 C.2    83  TRP83       0.2290
     41  O         48.2470  130.2740   58.4290 O.2    83  TRP83      -0.2864
     42  CB        49.3750  129.8580   61.2310 C.3    83  TRP83       0.0576
     43  CG        49.3430  129.1350   62.5590 C.ar   83  TRP83       0.0006
     44  CD1       49.0910  127.7890   62.7310 C.ar   83  TRP83       0.0946
     45  CD2       49.5550  129.6630   63.8580 C.ar   83  TRP83       0.0152
     46  NE1       49.1740  127.4650   64.0740 N.ar   83  TRP83      -0.2442
     47  CE2       49.4420  128.6070   64.7760 C.ar   83  TRP83       0.0810
     48  CE3       49.8710  130.9410   64.3400 C.ar   83  TRP83       0.0012
     49  CZ2       49.6410  128.7620   66.1540 C.ar   83  TRP83       0.0191
     50  CZ3       50.0220  131.1210   65.7170 C.ar   83  TRP83       0.0001
     51  CH2       49.9030  130.0200   66.6010 C.ar   83  TRP83       0.0015
     52  N         46.1370  122.7730   64.4920 N.3    95  VAL95      -0.1231
     53  CA        47.4750  123.4140   64.6020 C.3    95  VAL95       0.1692
     54  C         47.3740  124.6600   65.4570 C.2    95  VAL95       0.2592
     55  O         48.2260  125.5150   65.4390 O.2    95  VAL95      -0.2718
     56  CB        47.9570  123.7760   63.1960 C.3    95  VAL95       0.0266
     57  CG1       48.0480  122.5040   62.3620 C.3    95  VAL95       0.0020
     58  CG2       47.0360  124.8420   62.5840 C.3    95  VAL95       0.0020
     59  N         46.2700  124.7030   66.1970 N.am   96  SER96      -0.1952
     60  CA        45.9490  125.7850   67.0900 C.3    96  SER96       0.1924
     61  C         46.3350  127.1190   66.4890 C.2    96  SER96       0.2314
     62  O         46.9540  127.9920   67.1120 O.2    96  SER96      -0.2863
     63  CB        46.5110  125.5640   68.5090 C.3    96  SER96       0.2116
     64  OG        45.9620  124.3420   68.9920 O.3    96  SER96      -0.2180
     65  N         46.3340  130.4390   65.9980 N.3    98  VAL98      -0.1245
     66  CA        46.0590  131.5700   66.8580 C.3    98  VAL98       0.1561
     67  C         45.3800  132.7230   66.1680 C.2    98  VAL98       0.2260
     68  O         44.3540  133.1670   66.6500 O.2    98  VAL98      -0.2867
     69  CB        47.3680  131.9490   67.5800 C.3    98  VAL98       0.0252
     70  CG1       47.3020  133.3500   68.1590 C.3    98  VAL98       0.0019
     71  CG2       47.6540  130.9260   68.6720 C.3    98  VAL98       0.0019
     72  N         44.5530  133.0420   76.3100 N.3   136  LEU136     -0.1245
     73  CA        45.9800  132.8500   76.0990 C.3   136  LEU136      0.1561
     74  C         46.8100  133.6190   77.1330 C.2   136  LEU136      0.2260
     75  O         47.8210  133.1190   77.6210 O.2   136  LEU136     -0.2867
     76  CB        46.3390  133.4140   74.6890 C.3   136  LEU136      0.0270
     77  CG        45.5180  132.7430   73.5540 C.3   136  LEU136      0.0019
     78  CD1       45.6710  133.4580   72.2500 C.3   136  LEU136      0.0001
     79  CD2       45.9400  131.2790   73.4510 C.3   136  LEU136      0.0001
     80  N         44.9080  119.4570   72.4790 N.3   187  THR187     -0.1203
     81  CA        46.0060  119.8870   73.3260 C.3   187  THR187      0.1994
     82  C         45.9410  121.3860   73.6140 C.2   187  THR187      0.2618
     83  O         45.2540  122.1290   72.9480 O.2   187  THR187     -0.2717
     84  CB        47.3500  119.7280   72.5170 C.3   187  THR187      0.1784
     85  OG1       46.9700  120.2080   71.1730 O.3   187  THR187     -0.2211
     86  CG2       47.7010  118.2930   72.4080 C.3   187  THR187      0.0376
     87  N         46.7580  121.7910   74.6160 N.am  188  GLY188     -0.1942
     88  CA        46.9750  123.1640   74.9490 C.3   188  GLY188      0.2014
     89  C         48.3070  123.3100   75.7290 C.2   188  GLY188      0.2638
     90  O         48.7910  122.3590   76.2930 O.2   188  GLY188     -0.2714
     91  N         48.9510  124.4360   75.5640 N.am  189  PHE189     -0.1973
     92  CA        50.2080  124.7380   76.2770 C.3   189  PHE189      0.1639
     93  C         50.2800  126.2610   76.4170 C.2   189  PHE189      0.2290
     94  O         50.0670  126.9630   75.4250 O.2   189  PHE189     -0.2864
     95  CB        51.3810  124.2020   75.5350 C.3   189  PHE189      0.0560
     96  CG        52.7620  124.6680   75.8910 C.ar  189  PHE189     -0.0200
     97  CD1       53.2380  124.6020   77.1840 C.ar  189  PHE189     -0.0042
     98  CD2       53.6420  125.0500   74.8850 C.ar  189  PHE189     -0.0042
     99  CE1       54.5240  124.9950   77.4690 C.ar  189  PHE189     -0.0003
    100  CE2       54.9480  125.4450   75.1730 C.ar  189  PHE189     -0.0003
    101  CZ        55.3770  125.4210   76.4940 C.ar  189  PHE189     -0.0000
    102  N         59.6550  123.4620   77.0360 N.3   225  GLU225     -0.1231
    103  CA        58.9080  122.8320   75.9520 C.3   225  GLU225      0.1699
    104  C         59.3480  121.4170   75.6660 C.2   225  GLU225      0.2592
    105  O         58.5910  120.6520   75.0370 O.2   225  GLU225     -0.2718
    106  CB        59.0050  123.6610   74.6630 C.3   225  GLU225      0.0402
    107  CG        58.3920  125.0280   74.7120 C.3   225  GLU225      0.1161
    108  CD        58.2850  125.7080   73.3570 C.2   225  GLU225      0.3649
    109  OE1       58.5010  125.0460   72.3200 O.co2 225  GLU225     -0.2457
    110  OE2       57.9680  126.9280   73.3490 O.co2 225  GLU225     -0.2457
    111  N         60.5410  121.0050   76.1180 N.am  226  ASN226     -0.1974
    112  CA        61.0180  119.6410   75.8500 C.3   226  ASN226      0.1688
    113  C         60.2650  118.6090   76.6720 C.2   226  ASN226      0.2292
    114  O         60.3670  117.3900   76.4750 O.2   226  ASN226     -0.2864
    115  CB        62.5230  119.5790   76.0830 C.3   226  ASN226      0.1181
    116  CG        62.8900  119.6780   77.5660 C.2   226  ASN226      0.2629
    117  OD1       62.0480  119.8590   78.4390 O.2   226  ASN226     -0.2716
    118  ND2       64.1970  119.6230   77.8210 N.am  226  ASN226     -0.0877
    119  N         56.9990  118.7360   76.7020 N.3   228  LEU228     -0.1231
    120  CA        55.7190  118.7110   76.0220 C.3   228  LEU228      0.1678
    121  C         55.2050  117.3640   75.6500 C.2   228  LEU228      0.2434
    122  O         53.9970  117.0910   75.8290 O.2   228  LEU228     -0.2733
    123  CB        55.6940  119.7070   74.8740 C.3   228  LEU228      0.0284
    124  CG        54.5170  120.5380   74.5330 C.3   228  LEU228      0.0019
    125  CD1       53.8860  121.1940   75.7800 C.3   228  LEU228      0.0001
    126  CD2       54.8810  121.6500   73.5200 C.3   228  LEU228      0.0001
    127  N         56.0360  116.3850   75.2720 N.am  229  PRO229     -0.2729
    128  CA        55.5860  115.0700   74.9050 C.3   229  PRO229      0.1401
    129  C         54.9110  114.2680   76.0020 C.2   229  PRO229      0.2269
    130  O         54.0130  113.4250   75.7180 O.2   229  PRO229     -0.2865
    131  CB        56.8360  114.3810   74.3690 C.3   229  PRO229      0.0296
    132  CG        57.7640  115.4820   73.9970 C.3   229  PRO229      0.0237
    133  CD        57.4700  116.6160   74.9400 C.3   229  PRO229      0.0939
    134  N         52.6810  115.4070   77.9420 N.3   231  ARG231     -0.1245
    135  CA        51.2620  115.8390   78.0390 C.3   231  ARG231      0.1563
    136  C         50.3800  114.8500   77.3740 C.2   231  ARG231      0.2260
    137  O         49.2030  114.6350   77.7300 O.2   231  ARG231     -0.2867
    138  CB        51.2040  117.2730   77.5890 C.3   231  ARG231      0.0307
    139  CG        49.9220  117.8240   77.0840 C.3   231  ARG231      0.0489
    140  CD        49.6060  117.2470   75.6970 C.3   231  ARG231      0.2205
    141  NE        50.4560  117.8080   74.6710 N.pl3 231  ARG231     -0.0865
    142  CZ        50.4660  119.0420   74.2380 C.cat 231  ARG231      0.5346
    143  NH1       49.6340  119.9400   74.7530 N.pl3 231  ARG231      0.1354
    144  NH2       51.2740  119.3800   73.2460 N.pl3 231  ARG231      0.1354
@<TRIPOS>BOND
     1    41    40    2
     2    40    39    1
     3    32    31    2
     4    30    31    1
     5    30    29    1
     6    30    33    1
     7    31    38   am
     8    39    38    1
     9    39    42    1
    10    24    23    2
    11    33    34    1
    12    23    22    1
    13    42    43    1
    14    34    35    1
    15    57    56    1
    16    43    44   ar
    17    43    45   ar
    18    58    56    1
    19    22    21    1
    20    22    25    1
    21    44    46   ar
    22    36    35    2
    23    35    37   am
    24    56    53    1
    25    25    26    1
    26    45    48   ar
    27    45    47   ar
    28    46    47   ar
    29    48    50   ar
    30    52    53    1
    31    53    54    1
    32    47    49   ar
    33    26    27    1
    34    55    54    2
    35    54    59   am
    36    27    28    1
    37    50    51   ar
    38    65    66    1
    39    49    51   ar
    40    67    68    2
    41    67    66    1
    42    59    60    1
    43    61    60    1
    44    61    62    2
    45    66    69    1
    46    60    63    1
    47    69    70    1
    48    69    71    1
    49    19    18    1
    50    19    20    1
    51    18    17    1
    52    63    64    1
    53    17    16    1
    54    15    14    2
    55    16    13    1
    56    14    13    1
    57    13    12    1
    58    85    84    1
    59    11    10    1
    60    10     7    1
    61    78    77    1
    62     9     8    2
    63   109   108   ar
    64    86    84    1
    65    80    81    1
    66    84    81    1
    67    83    82    2
    68     7     8    1
    69     7     6    1
    70   144   142    1
    71    81    82    1
    72   110   108   ar
    73   108   107    1
    74    79    77    1
    75   126   124    1
    76    77    76    1
    77    82    87   am
    78   132   131    1
    79   132   133    1
    80   142   141    2
    81   142   143    1
    82     6     3   am
    83   131   128    1
    84   124   123    1
    85   124   125    1
    86    87    88    1
    87   106   107    1
    88   106   103    1
    89   141   140    1
    90    76    73    1
    91   123   120    1
    92    98   100   ar
    93    98    96   ar
    94   128   127    1
    95   128   129    1
    96   133   127    1
    97     4     3    2
    98    88    89    1
    99   105   104    2
   100     3     2    1
   101   100   101   ar
   102   127   121   am
   103    94    93    2
   104    95    96    1
   105    95    92    1
   106    91    89   am
   107    91    92    1
   108   121   122    2
   109   121   120    1
   110   104   103    1
   111   104   111   am
   112   140   139    1
   113   130   129    2
   114    89    90    2
   115   112   115    1
   116   112   111    1
   117   112   113    1
   118    96    97   ar
   119   103   102    1
   120   120   119    1
   121   115   116    1
   122    73    72    1
   123    73    74    1
   124    92    93    1
   125     2     5    1
   126     2     1    1
   127   114   113    2
   128   101    99   ar
   129   139   138    1
   130    74    75    2
   131    97    99   ar
   132   136   137    2
   133   136   135    1
   134   116   118   am
   135   116   117    2
   136   138   135    1
   137   134   135    1
