@<TRIPOS>MOLECULE
tmp/1h94A00.pdb
 208 204 0 0 0
SMALL
GASTEIGER

@<TRIPOS>ATOM
      1  N         98.5260   -6.7480   33.0060 N.3    12  GLY12      -0.1225
      2  CA        97.5090   -7.7350   33.3320 C.3    12  GLY12       0.1811
      3  C         97.4690   -8.7750   32.2250 C.2    12  GLY12       0.2280
      4  O         96.4160   -9.3400   31.8990 O.2    12  GLY12      -0.2866
      5  N         97.9670  -11.7960   32.0330 N.3    14  THR14      -0.1203
      6  CA        97.6700  -13.1970   32.3260 C.3    14  THR14       0.1994
      7  C         96.1800  -13.3780   32.6110 C.2    14  THR14       0.2618
      8  O         95.7160  -14.4820   32.8800 O.2    14  THR14      -0.2717
      9  CB        98.5120  -13.7450   33.5300 C.3    14  THR14       0.1784
     10  OG1       97.8980  -13.3800   34.7730 O.3    14  THR14      -0.2211
     11  CG2       99.9410  -13.1870   33.4990 C.3    14  THR14       0.0376
     12  N         95.4340  -12.2820   32.5100 N.am   15  GLY15      -0.1942
     13  CA        94.0090  -12.3090   32.7920 C.3    15  GLY15       0.2014
     14  C         93.1450  -12.9750   31.7320 C.2    15  GLY15       0.2639
     15  O         93.6550  -13.5480   30.7650 O.2    15  GLY15      -0.2714
     16  N         91.8310  -12.8730   31.9130 N.am   16  ASP16      -0.1957
     17  CA        90.8420  -13.4610   31.0130 C.3    16  ASP16       0.1840
     18  C         90.8930  -12.7780   29.6460 C.2    16  ASP16       0.2622
     19  O         91.3070  -13.3840   28.6500 O.2    16  ASP16      -0.2715
     20  CB        89.4520  -13.2960   31.6340 C.3    16  ASP16       0.1450
     21  CG        88.5760  -14.5250   31.4610 C.2    16  ASP16       0.3671
     22  OD1       89.0320  -15.6490   31.8020 O.co2  16  ASP16      -0.2456
     23  OD2       87.4180  -14.3670   31.0050 O.co2  16  ASP16      -0.2456
     24  N         90.5090  -11.5040   29.6120 N.am   17  LEU17      -0.1963
     25  CA        90.4950  -10.7160   28.3800 C.3    17  LEU17       0.1728
     26  C         91.8190  -10.8640   27.6430 C.2    17  LEU17       0.2616
     27  O         91.8480  -10.9920   26.4220 O.2    17  LEU17      -0.2715
     28  CB        90.2430   -9.2360   28.7000 C.3    17  LEU17       0.0311
     29  CG        90.0400   -8.2490   27.5490 C.3    17  LEU17       0.0022
     30  CD1       88.6970   -8.5050   26.8920 C.3    17  LEU17       0.0001
     31  CD2       90.1020   -6.8250   28.0630 C.3    17  LEU17       0.0001
     32  N         92.9060  -10.9010   28.4010 N.am   18  ALA18      -0.1977
     33  CA        94.2390  -11.0310   27.8350 C.3    18  ALA18       0.1597
     34  C         94.4050  -12.2990   27.0160 C.2    18  ALA18       0.2287
     35  O         94.6130  -12.2430   25.8040 O.2    18  ALA18      -0.2864
     36  CB        95.2850  -10.9810   28.9290 C.3    18  ALA18       0.0319
     37  N        102.4350   -8.6500   35.0780 N.3    45  ALA45      -0.1231
     38  CA       101.4690   -8.9160   36.1420 C.3    45  ALA45       0.1694
     39  C        102.2770   -9.1560   37.4120 C.2    45  ALA45       0.2592
     40  O        103.4800   -8.8890   37.4500 O.2    45  ALA45      -0.2718
     41  CB       100.6430  -10.1520   35.8140 C.3    45  ALA45       0.0304
     42  N        101.6320   -9.7080   38.4320 N.am   46  ARG46      -0.1966
     43  CA       102.3090   -9.9730   39.6950 C.3    46  ARG46       0.1729
     44  C        103.0340  -11.3240   39.7340 C.2    46  ARG46       0.2616
     45  O        104.1180  -11.4210   40.3160 O.2    46  ARG46      -0.2715
     46  CB       101.3290   -9.8410   40.8680 C.3    46  ARG46       0.0348
     47  CG       100.1230  -10.7560   40.7770 C.3    46  ARG46       0.0492
     48  CD        99.1360  -10.4920   41.8920 C.3    46  ARG46       0.2205
     49  NE        97.9270  -11.2940   41.7320 N.pl3  46  ARG46      -0.0865
     50  CZ        96.8260  -11.1460   42.4630 C.cat  46  ARG46       0.5346
     51  NH1       96.7690  -10.2200   43.4140 N.pl3  46  ARG46       0.1354
     52  NH2       95.7840  -11.9400   42.2540 N.pl3  46  ARG46       0.1354
     53  N        102.4540  -12.3550   39.1120 N.am   47  GLN47      -0.1977
     54  CA       103.0740  -13.6870   39.0940 C.3    47  GLN47       0.1601
     55  C        104.4400  -13.6510   38.4130 C.2    47  GLN47       0.2287
     56  O        104.6370  -12.9380   37.4270 O.2    47  GLN47      -0.2864
     57  CB       102.1930  -14.7260   38.3850 C.3    47  GLN47       0.0394
     58  CG       100.9120  -15.0970   39.1080 C.3    47  GLN47       0.0908
     59  CD        99.7510  -14.2130   38.7070 C.2    47  GLN47       0.2608
     60  OE1       99.8130  -12.9920   38.8330 O.2    47  GLN47      -0.2717
     61  NE2       98.6960  -14.8230   38.1860 N.am   47  GLN47      -0.0878
     62  N        105.8840   -7.7200   38.0960 N.3    84  HIS84      -0.1226
     63  CA       105.8490   -6.3130   38.4580 C.3    84  HIS84       0.1752
     64  C        104.5690   -5.8330   39.1460 C.2    84  HIS84       0.2596
     65  O        103.4620   -6.0690   38.6570 O.2    84  HIS84      -0.2718
     66  CB       106.1310   -5.4940   37.1870 C.3    84  HIS84       0.0759
     67  CG       105.6200   -4.0930   37.2240 C.ar   84  HIS84       0.0818
     68  ND1      106.3260   -3.0530   37.7800 N.ar   84  HIS84      -0.2268
     69  CD2      104.4750   -3.5510   36.7350 C.ar   84  HIS84       0.1154
     70  CE1      105.6470   -1.9300   37.6390 C.ar   84  HIS84       0.1986
     71  NE2      104.5190   -2.2080   37.0060 N.ar   84  HIS84      -0.2212
     72  N        104.7370   -5.1480   40.2780 N.am   85  ASP85      -0.1960
     73  CA       103.6160   -4.5820   41.0310 C.3    85  ASP85       0.1840
     74  C        103.4920   -3.1290   40.5700 C.2    85  ASP85       0.2622
     75  O        104.4740   -2.3780   40.6050 O.2    85  ASP85      -0.2715
     76  CB       103.8790   -4.6420   42.5410 C.3    85  ASP85       0.1450
     77  CG       102.7290   -4.0590   43.3660 C.2    85  ASP85       0.3671
     78  OD1      101.6680   -4.7150   43.4800 O.co2  85  ASP85      -0.2456
     79  OD2      102.8860   -2.9390   43.8960 O.co2  85  ASP85      -0.2456
     80  N        102.2950   -2.7480   40.1280 N.am   86  VAL86      -0.1963
     81  CA       102.0300   -1.4020   39.6110 C.3    86  VAL86       0.1727
     82  C        102.1070   -0.2510   40.6050 C.2    86  VAL86       0.2616
     83  O        102.1310    0.9150   40.2060 O.2    86  VAL86      -0.2715
     84  CB       100.6710   -1.3350   38.8810 C.3    86  VAL86       0.0290
     85  CG1      100.6990   -2.2280   37.6500 C.3    86  VAL86       0.0023
     86  CG2       99.5470   -1.7470   39.8190 C.3    86  VAL86       0.0023
     87  N        102.0960   -0.5730   41.8930 N.am   87  THR87      -0.1951
     88  CA       102.1780    0.4490   42.9260 C.3    87  THR87       0.1897
     89  C        103.6320    0.7070   43.3110 C.2    87  THR87       0.2313
     90  O        103.9750    1.7900   43.7860 O.2    87  THR87      -0.2863
     91  CB       101.3950    0.0370   44.1790 C.3    87  THR87       0.1794
     92  OG1      100.0550   -0.3240   43.8130 O.3    87  THR87      -0.2208
     93  CG2      101.3540    1.1840   45.1770 C.3    87  THR87       0.0378
     94  N         94.9550   -3.6340   31.3310 N.3   117  SER117     -0.1202
     95  CA        93.9020   -4.6110   31.5840 C.3   117  SER117      0.2020
     96  C         93.9030   -4.8780   33.1020 C.2   117  SER117      0.2619
     97  O         93.9270   -6.0360   33.5470 O.2   117  SER117     -0.2717
     98  CB        94.1840   -5.9090   30.7960 C.3   117  SER117      0.2103
     99  OG        92.9790   -6.5930   30.4780 O.3   117  SER117     -0.2182
    100  N         93.9250   -3.8040   33.8900 N.am  118  VAL118     -0.1965
    101  CA        93.9380   -3.9030   35.3500 C.3   118  VAL118      0.1727
    102  C         92.6910   -3.2520   35.9560 C.2   118  VAL118      0.2616
    103  O         91.8890   -2.6450   35.2390 O.2   118  VAL118     -0.2715
    104  CB        95.1910   -3.2110   35.9580 C.3   118  VAL118      0.0290
    105  CG1       96.4520   -3.9520   35.5590 C.3   118  VAL118      0.0023
    106  CG2       95.2690   -1.7570   35.5190 C.3   118  VAL118      0.0023
    107  N         92.5430   -3.3510   37.2770 N.am  119  ALA119     -0.1964
    108  CA        91.4030   -2.7550   37.9740 C.3   119  ALA119      0.1713
    109  C         91.3670   -1.2430   37.7300 C.2   119  ALA119      0.2458
    110  O         92.4140   -0.5950   37.7110 O.2   119  ALA119     -0.2730
    111  CB        91.4960   -3.0490   39.4730 C.3   119  ALA119      0.0333
    112  N         90.1620   -0.6610   37.5870 N.am  120  PRO120     -0.2727
    113  CA        89.9400    0.7710   37.3440 C.3   120  PRO120      0.1402
    114  C         90.7620    1.7240   38.2160 C.2   120  PRO120      0.2269
    115  O         91.2660    2.7380   37.7320 O.2   120  PRO120     -0.2865
    116  CB        88.4470    0.9300   37.6190 C.3   120  PRO120      0.0296
    117  CG        87.8940   -0.3690   37.1610 C.3   120  PRO120      0.0237
    118  CD        88.8750   -1.3700   37.7170 C.3   120  PRO120      0.0939
    119  N         93.7470    1.4130   39.4630 N.3   122  PHE122     -0.1227
    120  CA        95.1670    1.4700   39.1150 C.3   122  PHE122      0.1736
    121  C         95.4940    2.3650   37.9280 C.2   122  PHE122      0.2595
    122  O         96.6560    2.7050   37.7170 O.2   122  PHE122     -0.2718
    123  CB        95.6990    0.0720   38.7980 C.3   122  PHE122      0.0547
    124  CG        95.6470   -0.8820   39.9520 C.ar  122  PHE122     -0.0202
    125  CD1       96.3170   -0.6030   41.1350 C.ar  122  PHE122     -0.0042
    126  CD2       94.9580   -2.0830   39.8410 C.ar  122  PHE122     -0.0042
    127  CE1       96.3060   -1.5080   42.1880 C.ar  122  PHE122     -0.0003
    128  CE2       94.9390   -2.9980   40.8880 C.ar  122  PHE122     -0.0003
    129  CZ        95.6150   -2.7100   42.0640 C.ar  122  PHE122     -0.0000
    130  N         94.4820    2.7290   37.1460 N.am  123  PHE123     -0.1976
    131  CA        94.6730    3.5560   35.9520 C.3   123  PHE123      0.1639
    132  C         95.4920    4.8220   36.1900 C.2   123  PHE123      0.2290
    133  O         96.4430    5.1010   35.4520 O.2   123  PHE123     -0.2864
    134  CB        93.3180    3.9230   35.3250 C.3   123  PHE123      0.0560
    135  CG        92.5440    2.7430   34.7760 C.ar  123  PHE123     -0.0200
    136  CD1       93.1110    1.4740   34.7100 C.ar  123  PHE123     -0.0042
    137  CD2       91.2460    2.9140   34.3060 C.ar  123  PHE123     -0.0042
    138  CE1       92.4010    0.3910   34.1760 C.ar  123  PHE123     -0.0003
    139  CE2       90.5270    1.8390   33.7700 C.ar  123  PHE123     -0.0003
    140  CZ        91.1090    0.5740   33.7090 C.ar  123  PHE123     -0.0000
    141  N         90.8670    0.3730   29.3910 N.3   147  GLU147     -0.1231
    142  CA        89.7860   -0.6050   29.4020 C.3   147  GLU147      0.1699
    143  C         88.5590   -0.0690   30.1570 C.2   147  GLU147      0.2592
    144  O         88.6470    0.9460   30.8520 O.2   147  GLU147     -0.2718
    145  CB        90.3100   -1.8980   30.0350 C.3   147  GLU147      0.0402
    146  CG        89.3790   -3.0890   29.9600 C.3   147  GLU147      0.1161
    147  CD        88.9770   -3.4640   28.5430 C.2   147  GLU147      0.3649
    148  OE1       89.8320   -3.4290   27.6340 O.co2 147  GLU147     -0.2457
    149  OE2       87.7980   -3.8250   28.3520 O.co2 147  GLU147     -0.2457
    150  N         87.4120   -0.7270   29.9880 N.am  148  LYS148     -0.1966
    151  CA        86.1670   -0.3140   30.6500 C.3   148  LYS148      0.1713
    152  C         86.1380   -0.6070   32.1500 C.2   148  LYS148      0.2458
    153  O         86.5790   -1.6690   32.5890 O.2   148  LYS148     -0.2730
    154  CB        84.9510   -1.0010   30.0100 C.3   148  LYS148      0.0311
    155  CG        84.6890   -0.6710   28.5470 C.3   148  LYS148      0.0038
    156  CD        85.2220   -1.7600   27.6200 C.3   148  LYS148      0.0206
    157  CE        84.5210   -3.0890   27.8540 C.3   148  LYS148      0.1093
    158  NZ        85.0840   -4.1540   26.9770 N.3   148  LYS148     -0.1314
    159  N         85.5270    0.2860   32.9490 N.am  149  PRO149     -0.2727
    160  CA        84.8830    1.5420   32.5590 C.3   149  PRO149      0.1402
    161  C         85.7420    2.7630   32.8890 C.2   149  PRO149      0.2269
    162  O         86.7410    2.6610   33.6010 O.2   149  PRO149     -0.2865
    163  CB        83.6190    1.5250   33.4000 C.3   149  PRO149      0.0296
    164  CG        84.1240    0.9950   34.6910 C.3   149  PRO149      0.0237
    165  CD        85.0630   -0.1330   34.2820 C.3   149  PRO149      0.0939
    166  N         76.7010  -12.7710   37.1630 N.3   223  ARG223     -0.1245
    167  CA        77.2370  -11.4170   37.0360 C.3   223  ARG223      0.1563
    168  C         76.5610  -10.4830   38.0600 C.2   223  ARG223      0.2260
    169  O         76.8790   -9.2880   38.1460 O.2   223  ARG223     -0.2867
    170  CB        76.9850  -10.9250   35.6030 C.3   223  ARG223      0.0307
    171  CG        77.5030   -9.5400   35.2810 C.3   223  ARG223      0.0489
    172  CD        77.1570   -9.1400   33.8510 C.3   223  ARG223      0.2205
    173  NE        77.6820   -7.8180   33.5110 N.pl3 223  ARG223     -0.0865
    174  CZ        78.9770   -7.5330   33.3710 C.cat 223  ARG223      0.5346
    175  NH1       79.9020   -8.4740   33.5400 N.pl3 223  ARG223      0.1354
    176  NH2       79.3500   -6.2950   33.0700 N.pl3 223  ARG223      0.1354
    177  N         78.5530   -7.4130   40.6370 N.3   226  TYR226     -0.1241
    178  CA        78.7980   -6.0800   40.1130 C.3   226  TYR226      0.1605
    179  C         77.5280   -5.4300   39.5460 C.2   226  TYR226      0.2264
    180  O         77.2250   -4.2710   39.8410 O.2   226  TYR226     -0.2867
    181  CB        79.9000   -6.1500   39.0410 C.3   226  TYR226      0.0534
    182  CG        79.7830   -5.1180   37.9390 C.ar  226  TYR226     -0.0201
    183  CD1       79.0210   -5.3770   36.7940 C.ar  226  TYR226     -0.0009
    184  CD2       80.4070   -3.8740   38.0490 C.ar  226  TYR226     -0.0009
    185  CE1       78.8750   -4.4230   35.7920 C.ar  226  TYR226      0.0417
    186  CE2       80.2710   -2.9090   37.0470 C.ar  226  TYR226      0.0417
    187  CZ        79.5000   -3.1930   35.9210 C.ar  226  TYR226      0.1957
    188  OH        79.3480   -2.2470   34.9290 O.3   226  TYR226     -0.2866
    189  N         75.4540   -0.0300   32.7660 N.3   235  ASP235     -0.1239
    190  CA        76.0150   -1.1660   32.0470 C.3   235  ASP235      0.1674
    191  C         75.8940   -1.0200   30.5300 C.2   235  ASP235      0.2266
    192  O         76.8720   -1.2000   29.7940 O.2   235  ASP235     -0.2867
    193  CB        75.3340   -2.4600   32.5100 C.3   235  ASP235      0.1410
    194  CG        75.9810   -3.7130   31.9350 C.2   235  ASP235      0.3668
    195  OD1       77.2280   -3.7710   31.8230 O.co2 235  ASP235     -0.2456
    196  OD2       75.2290   -4.6550   31.6080 O.co2 235  ASP235     -0.2456
    197  N         87.9270   -6.3180   19.0210 N.3   415  TYR415     -0.1241
    198  CA        89.2320   -6.0720   19.6300 C.3   415  TYR415      0.1605
    199  C         90.3490   -5.9530   18.6050 C.2   415  TYR415      0.2264
    200  O         91.1970   -5.0550   18.7160 O.2   415  TYR415     -0.2867
    201  CB        89.5580   -7.1510   20.6650 C.3   415  TYR415      0.0534
    202  CG        89.0280   -6.7970   22.0250 C.ar  415  TYR415     -0.0201
    203  CD1       89.7830   -6.0020   22.8860 C.ar  415  TYR415     -0.0009
    204  CD2       87.7330   -7.1610   22.4160 C.ar  415  TYR415     -0.0009
    205  CE1       89.2660   -5.5720   24.0960 C.ar  415  TYR415      0.0417
    206  CE2       87.2000   -6.7340   23.6330 C.ar  415  TYR415      0.0417
    207  CZ        87.9700   -5.9320   24.4680 C.ar  415  TYR415      0.1957
    208  OH        87.4280   -5.4610   25.6310 O.3   415  TYR415     -0.2866
@<TRIPOS>BOND
     1   199   200    2
     2   199   198    1
     3   197   198    1
     4   198   201    1
     5   201   202    1
     6   202   204   ar
     7   202   203   ar
     8   204   206   ar
     9   203   205   ar
    10   206   207   ar
    11   205   207   ar
    12   207   208    1
    13    35    34    2
    14    27    26    2
    15    30    29    1
    16   158   157    1
    17    34    33    1
    18    29    31    1
    19    29    28    1
    20   156   157    1
    21   156   155    1
    22   148   147   ar
    23    26    25    1
    24    26    32   am
    25    33    32    1
    26    33    36    1
    27   149   147   ar
    28    25    28    1
    29    25    24    1
    30   147   146    1
    31   155   154    1
    32    19    18    2
    33   141   142    1
    34   142   145    1
    35   142   143    1
    36    24    18   am
    37    18    17    1
    38   192   191    2
    39   146   145    1
    40   150   143   am
    41   150   151    1
    42   154   151    1
    43   143   144    2
    44    99    98    1
    45   191   190    1
    46   151   152    1
    47    15    14    2
    48    98    95    1
    49    23    21   ar
    50    17    20    1
    51    17    16    1
    52    94    95    1
    53    21    20    1
    54    21    22   ar
    55    95    96    1
    56   196   194   ar
    57    14    16   am
    58    14    13    1
    59   195   194   ar
    60     4     3    2
    61   194   193    1
    62     5     6    1
    63   190   193    1
    64   190   189    1
    65   152   153    2
    66   152   159   am
    67     3     2    1
    68     6     7    1
    69     6     9    1
    70    12     7   am
    71    12    13    1
    72   160   161    1
    73   160   159    1
    74   160   163    1
    75     7     8    2
    76   161   162    2
    77   159   165    1
    78     1     2    1
    79   176   174    1
    80    96    97    2
    81    96   100   am
    82   174   173    2
    83   174   175    1
    84   163   164    1
    85    11     9    1
    86   173   172    1
    87     9    10    1
    88   140   139   ar
    89   140   138   ar
    90   139   137   ar
    91   172   171    1
    92   100   101    1
    93   138   136   ar
    94   165   164    1
    95   137   135   ar
    96   136   135   ar
    97   135   134    1
    98   188   187    1
    99    37    38    1
   100   103   102    2
   101   171   170    1
   102   134   131    1
   103   101   102    1
   104   101   104    1
   105   133   132    2
   106   106   104    1
   107   105   104    1
   108   170   167    1
   109   185   187   ar
   110   185   183   ar
   111    41    38    1
   112   187   186   ar
   113   131   132    1
   114   131   130    1
   115   102   107   am
   116    38    39    1
   117    69    71   ar
   118    69    67   ar
   119   183   182   ar
   120    71    70   ar
   121   167   166    1
   122   167   168    1
   123   186   184   ar
   124   130   121   am
   125   117   116    1
   126   117   118    1
   127    66    67    1
   128    66    63    1
   129    67    68   ar
   130   107   108    1
   131   113   112    1
   132   113   116    1
   133   113   114    1
   134    39    40    2
   135    39    42   am
   136    56    55    2
   137   112   118    1
   138   112   109   am
   139    70    68   ar
   140    85    84    1
   141   110   109    2
   142   122   121    2
   143   109   108    1
   144   115   114    2
   145   121   120    1
   146   182   184   ar
   147   182   181    1
   148   108   111    1
   149   168   169    2
   150    62    63    1
   151    61    59   am
   152    57    54    1
   153    57    58    1
   154    55    54    1
   155    42    43    1
   156    63    64    1
   157    65    64    2
   158    59    60    2
   159    59    58    1
   160   123   120    1
   161   123   124    1
   162    84    81    1
   163    84    86    1
   164   181   178    1
   165    54    53    1
   166    53    44   am
   167   120   119    1
   168    64    72   am
   169   179   180    2
   170   179   178    1
   171    81    80    1
   172    81    82    1
   173    43    44    1
   174    43    46    1
   175    44    45    2
   176   126   124   ar
   177   126   128   ar
   178   124   125   ar
   179   178   177    1
   180    80    74   am
   181    83    82    2
   182    72    73    1
   183    74    75    2
   184    74    73    1
   185    82    87   am
   186    47    46    1
   187    47    48    1
   188   128   129   ar
   189    73    76    1
   190   125   127   ar
   191    49    48    1
   192    49    50    2
   193    87    88    1
   194   129   127   ar
   195    52    50    1
   196    50    51    1
   197    76    77    1
   198    88    89    1
   199    88    91    1
   200    89    90    2
   201    77    78   ar
   202    77    79   ar
   203    92    91    1
   204    91    93    1
