@<TRIPOS>MOLECULE
tmp/1h9aA00.pdb
 222 221 0 0 0
SMALL
GASTEIGER

@<TRIPOS>ATOM
      1  N         87.6530   61.9240   34.6980 N.3    11  PHE11      -0.1227
      2  CA        88.3530   61.6440   33.4470 C.3    11  PHE11       0.1736
      3  C         88.0970   62.9160   32.6430 C.2    11  PHE11       0.2596
      4  O         86.9660   63.4100   32.6150 O.2    11  PHE11      -0.2718
      5  CB        87.7620   60.4210   32.7330 C.3    11  PHE11       0.0547
      6  CG        88.1060   59.1140   33.3870 C.ar   11  PHE11      -0.0202
      7  CD1       87.3070   58.5960   34.3990 C.ar   11  PHE11      -0.0042
      8  CD2       89.2420   58.4060   33.0030 C.ar   11  PHE11      -0.0042
      9  CE1       87.6330   57.3910   35.0220 C.ar   11  PHE11      -0.0003
     10  CE2       89.5790   57.2020   33.6180 C.ar   11  PHE11      -0.0003
     11  CZ        88.7720   56.6930   34.6310 C.ar   11  PHE11      -0.0000
     12  N         89.1370   63.4550   32.0180 N.am   12  GLY12      -0.1957
     13  CA        88.9970   64.6980   31.2770 C.3    12  GLY12       0.1869
     14  C         89.0780   65.8430   32.2760 C.2    12  GLY12       0.2309
     15  O         88.4690   66.9030   32.0940 O.2    12  GLY12      -0.2863
     16  N         91.2250   68.0370   32.8270 N.3    14  THR14      -0.1203
     17  CA        91.7810   69.3130   32.3930 C.3    14  THR14       0.1994
     18  C         90.8600   69.9660   31.3660 C.2    14  THR14       0.2618
     19  O         91.1460   71.0540   30.8610 O.2    14  THR14      -0.2717
     20  CB        93.1700   69.1130   31.7910 C.3    14  THR14       0.1784
     21  OG1       93.0910   68.1160   30.7670 O.3    14  THR14      -0.2211
     22  CG2       94.1440   68.6400   32.8630 C.3    14  THR14       0.0376
     23  N         89.7350   69.3080   31.0990 N.am   15  GLY15      -0.1942
     24  CA        88.7830   69.7970   30.1180 C.3    15  GLY15       0.2014
     25  C         88.0610   71.0780   30.4660 C.2    15  GLY15       0.2639
     26  O         88.0290   71.5080   31.6220 O.2    15  GLY15      -0.2714
     27  N         87.4390   71.6630   29.4500 N.am   16  ASP16      -0.1957
     28  CA        86.6940   72.9050   29.5870 C.3    16  ASP16       0.1840
     29  C         85.5300   72.7550   30.5730 C.2    16  ASP16       0.2621
     30  O         85.3240   73.6150   31.4330 O.2    16  ASP16      -0.2715
     31  CB        86.1860   73.3410   28.2050 C.3    16  ASP16       0.1450
     32  CG        85.2730   74.5500   28.2650 C.2    16  ASP16       0.3671
     33  OD1       85.7850   75.6690   28.5050 O.co2  16  ASP16      -0.2456
     34  OD2       84.0410   74.3740   28.0750 O.co2  16  ASP16      -0.2456
     35  N         84.7930   71.6510   30.4640 N.am   17  LEU17      -0.1977
     36  CA        83.6520   71.3940   31.3400 C.3    17  LEU17       0.1596
     37  C         84.0860   71.2140   32.7930 C.2    17  LEU17       0.2287
     38  O         83.4190   71.6950   33.7120 O.2    17  LEU17      -0.2864
     39  CB        82.8820   70.1540   30.8800 C.3    17  LEU17       0.0297
     40  CG        81.6530   69.7930   31.7210 C.3    17  LEU17       0.0022
     41  CD1       80.5570   70.8200   31.4850 C.3    17  LEU17       0.0001
     42  CD2       81.1620   68.3920   31.3890 C.3    17  LEU17       0.0001
     43  N         85.0980   74.7720   34.1050 N.3    20  ARG20      -0.1245
     44  CA        84.0190   75.7600   34.0740 C.3    20  ARG20       0.1563
     45  C         82.8100   75.3640   34.9170 C.2    20  ARG20       0.2260
     46  O         82.1780   76.2130   35.5430 O.2    20  ARG20      -0.2867
     47  CB        83.5460   76.0020   32.6330 C.3    20  ARG20       0.0307
     48  CG        84.2230   77.1630   31.9060 C.3    20  ARG20       0.0489
     49  CD        83.6950   77.3280   30.4670 C.3    20  ARG20       0.2205
     50  NE        82.2750   77.7090   30.3880 N.pl3  20  ARG20      -0.0865
     51  CZ        81.2570   76.8550   30.2530 C.cat  20  ARG20       0.5346
     52  NH1       81.4760   75.5420   30.1860 N.pl3  20  ARG20       0.1354
     53  NH2       80.0120   77.3170   30.1520 N.pl3  20  ARG20       0.1354
     54  N         92.3130   63.3790   36.0460 N.3    44  THR44      -0.1203
     55  CA        93.1630   62.6570   35.1110 C.3    44  THR44       0.1994
     56  C         92.9200   63.0530   33.6580 C.2    44  THR44       0.2618
     57  O         91.8100   63.4480   33.2910 O.2    44  THR44      -0.2717
     58  CB        93.0020   61.1390   35.2700 C.3    44  THR44       0.1784
     59  OG1       93.8930   60.4630   34.3760 O.3    44  THR44      -0.2211
     60  CG2       91.5770   60.7200   34.9670 C.3    44  THR44       0.0376
     61  N         93.9840   62.9590   32.8590 N.am   45  ALA45      -0.1965
     62  CA        94.0020   63.2780   31.4240 C.3    45  ALA45       0.1728
     63  C         95.3980   62.8830   30.9220 C.2    45  ALA45       0.2616
     64  O         96.2190   62.3940   31.7030 O.2    45  ALA45      -0.2715
     65  CB        93.7630   64.7650   31.2000 C.3    45  ALA45       0.0334
     66  N         95.6800   63.0810   29.6390 N.am   46  ARG46      -0.1963
     67  CA        96.9950   62.7160   29.1170 C.3    46  ARG46       0.1729
     68  C         98.0700   63.7130   29.5240 C.2    46  ARG46       0.2616
     69  O         99.2110   63.3240   29.7870 O.2    46  ARG46      -0.2715
     70  CB        96.9820   62.5990   27.5980 C.3    46  ARG46       0.0348
     71  CG        96.1820   61.4400   27.0300 C.3    46  ARG46       0.0492
     72  CD        96.0260   61.6400   25.5320 C.3    46  ARG46       0.2205
     73  NE        95.5970   63.0140   25.2410 N.pl3  46  ARG46      -0.0865
     74  CZ        95.0580   63.4210   24.0950 C.cat  46  ARG46       0.5346
     75  NH1       94.8660   62.5650   23.0940 N.pl3  46  ARG46       0.1354
     76  NH2       94.7180   64.6970   23.9490 N.pl3  46  ARG46       0.1354
     77  N         97.7100   64.9940   29.5550 N.am   47  GLN47      -0.1977
     78  CA        98.6390   66.0570   29.9210 C.3    47  GLN47       0.1601
     79  C         99.4470   65.7230   31.1900 C.2    47  GLN47       0.2287
     80  O         98.8750   65.4090   32.2390 O.2    47  GLN47      -0.2864
     81  CB        97.8750   67.3610   30.1180 C.3    47  GLN47       0.0394
     82  CG        98.7560   68.5860   30.0540 C.3    47  GLN47       0.0908
     83  CD        98.0380   69.8680   30.4470 C.2    47  GLN47       0.2608
     84  OE1       98.6750   70.8610   30.8150 O.2    47  GLN47      -0.2717
     85  NE2       96.7180   69.8580   30.3780 N.am   47  GLN47      -0.0878
     86  N         97.2820   59.9600   32.2530 N.3    84  HIS84      -0.1226
     87  CA        96.8090   58.6420   31.8560 C.3    84  HIS84       0.1752
     88  C         96.0720   58.6460   30.5150 C.2    84  HIS84       0.2596
     89  O         95.2510   59.5270   30.2610 O.2    84  HIS84      -0.2718
     90  CB        95.8740   58.1480   32.9660 C.3    84  HIS84       0.0759
     91  CG        95.0920   56.9260   32.6140 C.ar   84  HIS84       0.0818
     92  ND1       95.6840   55.7060   32.3790 N.ar   84  HIS84      -0.2268
     93  CD2       93.7590   56.7340   32.4670 C.ar   84  HIS84       0.1154
     94  CE1       94.7500   54.8140   32.0980 C.ar   84  HIS84       0.1986
     95  NE2       93.5740   55.4120   32.1440 N.ar   84  HIS84      -0.2212
     96  N         96.3680   57.6690   29.6590 N.am   85  ASP85      -0.1960
     97  CA        95.6970   57.5600   28.3590 C.3    85  ASP85       0.1840
     98  C         94.6100   56.5100   28.5220 C.2    85  ASP85       0.2622
     99  O         94.9080   55.3730   28.8880 O.2    85  ASP85      -0.2715
    100  CB        96.6770   57.1190   27.2620 C.3    85  ASP85       0.1450
    101  CG        96.1080   57.2970   25.8500 C.2    85  ASP85       0.3671
    102  OD1       94.9360   56.9440   25.6080 O.co2  85  ASP85      -0.2456
    103  OD2       96.8370   57.8060   24.9740 O.co2  85  ASP85      -0.2456
    104  N         93.3640   56.8760   28.2280 N.am   86  VAL86      -0.1963
    105  CA        92.2380   55.9520   28.3870 C.3    86  VAL86       0.1727
    106  C         92.2060   54.7570   27.4400 C.2    86  VAL86       0.2616
    107  O         91.4550   53.8050   27.6670 O.2    86  VAL86      -0.2715
    108  CB        90.8860   56.6860   28.3130 C.3    86  VAL86       0.0290
    109  CG1       90.7670   57.6800   29.4600 C.3    86  VAL86       0.0023
    110  CG2       90.7370   57.3900   26.9720 C.3    86  VAL86       0.0023
    111  N         93.0100   54.8010   26.3810 N.am   87  THR87      -0.1951
    112  CA        93.0480   53.7050   25.4220 C.3    87  THR87       0.1897
    113  C         94.1470   52.6940   25.7460 C.2    87  THR87       0.2313
    114  O         94.1930   51.6080   25.1600 O.2    87  THR87      -0.2863
    115  CB        93.2200   54.2240   23.9840 C.3    87  THR87       0.1794
    116  OG1       94.4550   54.9340   23.8690 O.3    87  THR87      -0.2208
    117  CG2       92.0840   55.1630   23.6280 C.3    87  THR87       0.0378
    118  N         84.1700   62.9900   31.5250 N.3   117  SER117     -0.1202
    119  CA        84.0720   64.2620   30.8170 C.3   117  SER117      0.2020
    120  C         85.0460   64.2130   29.6310 C.2   117  SER117      0.2619
    121  O         85.9120   65.0790   29.4570 O.2   117  SER117     -0.2717
    122  CB        84.4070   65.4190   31.7600 C.3   117  SER117      0.2103
    123  OG        83.9470   66.6580   31.2410 O.3   117  SER117     -0.2182
    124  N         84.8870   63.1780   28.8150 N.am  118  VAL118     -0.1965
    125  CA        85.7340   62.9640   27.6490 C.3   118  VAL118      0.1727
    126  C         84.8630   62.7870   26.4000 C.2   118  VAL118      0.2616
    127  O         83.6360   62.8730   26.4760 O.2   118  VAL118     -0.2715
    128  CB        86.6350   61.7040   27.8420 C.3   118  VAL118      0.0290
    129  CG1       87.6030   61.9190   28.9900 C.3   118  VAL118      0.0023
    130  CG2       85.7800   60.4610   28.1050 C.3   118  VAL118      0.0023
    131  N         85.4990   62.5410   25.2570 N.am  119  ALA119     -0.1964
    132  CA        84.7770   62.3310   24.0020 C.3   119  ALA119      0.1713
    133  C         83.9500   61.0550   24.1140 C.2   119  ALA119      0.2458
    134  O         84.4100   60.0480   24.6570 O.2   119  ALA119     -0.2730
    135  CB        85.7520   62.2290   22.8340 C.3   119  ALA119      0.0333
    136  N         82.7350   61.0670   23.5590 N.am  120  PRO120     -0.2716
    137  CA        81.8160   59.9280   23.5860 C.3   120  PRO120      0.1536
    138  C         82.3960   58.5830   23.1520 C.2   120  PRO120      0.2598
    139  O         82.0260   57.5460   23.7000 O.2   120  PRO120     -0.2715
    140  CB        80.6990   60.3810   22.6520 C.3   120  PRO120      0.0310
    141  CG        80.6680   61.8520   22.8840 C.3   120  PRO120      0.0237
    142  CD        82.1300   62.2030   22.8460 C.3   120  PRO120      0.0939
    143  N         83.3130   58.5940   22.1900 N.am  121  ARG121     -0.1964
    144  CA        83.9000   57.3480   21.7020 C.3   121  ARG121      0.1729
    145  C         84.6760   56.5570   22.7550 C.2   121  ARG121      0.2616
    146  O         84.9370   55.3620   22.5790 O.2   121  ARG121     -0.2715
    147  CB        84.7910   57.6070   20.4860 C.3   121  ARG121      0.0348
    148  CG        85.9830   58.5010   20.7500 C.3   121  ARG121      0.0492
    149  CD        86.8420   58.6300   19.5060 C.3   121  ARG121      0.2205
    150  NE        87.9910   59.4990   19.7400 N.pl3 121  ARG121     -0.0865
    151  CZ        87.9460   60.8300   19.7030 C.cat 121  ARG121      0.5346
    152  NH1       86.8040   61.4600   19.4320 N.pl3 121  ARG121      0.1354
    153  NH2       89.0410   61.5390   19.9610 N.pl3 121  ARG121      0.1354
    154  N         85.0290   57.2190   23.8540 N.am  122  PHE122     -0.1960
    155  CA        85.7750   56.5730   24.9280 C.3   122  PHE122      0.1771
    156  C         84.9030   55.9340   26.0030 C.2   122  PHE122      0.2619
    157  O         85.3750   55.0690   26.7460 O.2   122  PHE122     -0.2715
    158  CB        86.7120   57.5810   25.5790 C.3   122  PHE122      0.0574
    159  CG        87.7100   58.1760   24.6320 C.ar  122  PHE122     -0.0200
    160  CD1       88.5450   57.3570   23.8760 C.ar  122  PHE122     -0.0042
    161  CD2       87.8240   59.5590   24.5000 C.ar  122  PHE122     -0.0042
    162  CE1       89.4770   57.9050   23.0060 C.ar  122  PHE122     -0.0003
    163  CE2       88.7570   60.1170   23.6300 C.ar  122  PHE122     -0.0003
    164  CZ        89.5840   59.2880   22.8830 C.ar  122  PHE122     -0.0000
    165  N         83.6280   56.3180   26.0470 N.am  123  PHE123     -0.1974
    166  CA        82.6870   55.8220   27.0500 C.3   123  PHE123      0.1639
    167  C         82.7180   54.3320   27.3410 C.2   123  PHE123      0.2290
    168  O         82.9010   53.9310   28.4920 O.2   123  PHE123     -0.2864
    169  CB        81.2630   56.2560   26.7150 C.3   123  PHE123      0.0560
    170  CG        81.0200   57.7240   26.8850 C.ar  123  PHE123     -0.0200
    171  CD1       81.9480   58.5300   27.5320 C.ar  123  PHE123     -0.0042
    172  CD2       79.8540   58.3040   26.4010 C.ar  123  PHE123     -0.0042
    173  CE1       81.7190   59.8930   27.6930 C.ar  123  PHE123     -0.0003
    174  CE2       79.6130   59.6680   26.5580 C.ar  123  PHE123     -0.0003
    175  CZ        80.5460   60.4640   27.2050 C.ar  123  PHE123     -0.0000
    176  N         78.5140   61.5690   30.3330 N.3   147  GLU147     -0.1231
    177  CA        78.1230   62.8310   29.7200 C.3   147  GLU147      0.1699
    178  C         77.3360   62.5430   28.4430 C.2   147  GLU147      0.2592
    179  O         77.2510   61.3980   28.0010 O.2   147  GLU147     -0.2718
    180  CB        79.3510   63.6830   29.4000 C.3   147  GLU147      0.0402
    181  CG        79.5980   64.8190   30.3810 C.3   147  GLU147      0.1161
    182  CD        78.4740   65.8480   30.4140 C.2   147  GLU147      0.3649
    183  OE1       77.7970   66.0570   29.3810 O.co2 147  GLU147     -0.2457
    184  OE2       78.2700   66.4610   31.4840 O.co2 147  GLU147     -0.2457
    185  N         76.7400   63.5790   27.8670 N.am  148  LYS148     -0.1966
    186  CA        75.9730   63.4070   26.6430 C.3   148  LYS148      0.1713
    187  C         76.9090   63.3600   25.4340 C.2   148  LYS148      0.2458
    188  O         77.9930   63.9500   25.4530 O.2   148  LYS148     -0.2730
    189  CB        74.9410   64.5310   26.4770 C.3   148  LYS148      0.0311
    190  CG        75.5360   65.8950   26.2070 C.3   148  LYS148      0.0038
    191  CD        74.6110   66.7260   25.3220 C.3   148  LYS148      0.0206
    192  CE        75.3800   67.8650   24.6570 C.3   148  LYS148      0.1093
    193  NZ        76.6450   67.3650   24.0010 N.3   148  LYS148     -0.1314
    194  N         76.4850   62.6820   24.3530 N.am  149  PRO149     -0.2727
    195  CA        75.1950   61.9870   24.2590 C.3   149  PRO149      0.1402
    196  C         75.2850   60.5170   24.6450 C.2   149  PRO149      0.2269
    197  O         76.3790   59.9700   24.7580 O.2   149  PRO149     -0.2865
    198  CB        74.8590   62.1270   22.7780 C.3   149  PRO149      0.0296
    199  CG        76.2110   61.9530   22.1330 C.3   149  PRO149      0.0237
    200  CD        77.1340   62.7730   23.0290 C.3   149  PRO149      0.0939
    201  N         71.1640   67.9560   31.6900 N.3   178  HIS178     -0.1241
    202  CA        70.9700   69.1340   32.5270 C.3   178  HIS178      0.1621
    203  C         69.5480   69.6740   32.6450 C.2   178  HIS178      0.2264
    204  O         69.2370   70.3650   33.6090 O.2   178  HIS178     -0.2867
    205  CB        71.9990   70.2380   32.2050 C.3   178  HIS178      0.0745
    206  CG        71.7050   71.0320   30.9700 C.ar  178  HIS178      0.0817
    207  ND1       72.0850   70.6240   29.7100 N.ar  178  HIS178     -0.2268
    208  CD2       71.1500   72.2590   30.8160 C.ar  178  HIS178      0.1154
    209  CE1       71.7820   71.5670   28.8330 C.ar  178  HIS178      0.1986
    210  NE2       71.2150   72.5680   29.4790 N.ar  178  HIS178     -0.2212
    211  N         74.4060   71.2170   37.4720 N.3   415  TYR415     -0.1241
    212  CA        75.5080   70.2790   37.6940 C.3   415  TYR415      0.1605
    213  C         75.7430   69.9460   39.1590 C.2   415  TYR415      0.2264
    214  O         76.0470   68.8040   39.4890 O.2   415  TYR415     -0.2867
    215  CB        76.7970   70.7340   37.0070 C.3   415  TYR415      0.0534
    216  CG        76.8900   70.2660   35.5640 C.ar  415  TYR415     -0.0201
    217  CD1       77.2240   68.9430   35.2580 C.ar  415  TYR415     -0.0009
    218  CD2       76.6160   71.1360   34.5070 C.ar  415  TYR415     -0.0009
    219  CE1       77.2790   68.5010   33.9310 C.ar  415  TYR415      0.0417
    220  CE2       76.6690   70.7050   33.1840 C.ar  415  TYR415      0.0417
    221  CZ        77.0010   69.3900   32.9030 C.ar  415  TYR415      0.1957
    222  OH        77.0590   68.9820   31.5880 O.3   415  TYR415     -0.2866
@<TRIPOS>BOND
     1   152   151    1
     2   149   150    1
     3   149   148    1
     4   151   150    2
     5   151   153    1
     6   147   148    1
     7   147   144    1
     8   144   143    1
     9   144   145    1
    10   199   198    1
    11   199   200    1
    12   143   138   am
    13   146   145    2
    14   140   141    1
    15   140   137    1
    16   145   154   am
    17   198   195    1
    18   135   132    1
    19   142   141    1
    20   142   136    1
    21   164   162   ar
    22   164   163   ar
    23   162   160   ar
    24   200   194    1
    25    75    74    1
    26   138   137    1
    27   138   139    2
    28   136   137    1
    29   136   133   am
    30   117   115    1
    31   163   161   ar
    32   154   155    1
    33   116   115    1
    34   160   159   ar
    35    76    74    1
    36   115   112    1
    37   193   192    1
    38   132   133    1
    39   132   131    1
    40    74    73    2
    41   133   134    2
    42   195   194    1
    43   195   196    1
    44   194   187   am
    45   161   159   ar
    46   159   158    1
    47   196   197    2
    48   192   191    1
    49   155   158    1
    50   155   156    1
    51   103   101   ar
    52   114   113    2
    53    73    72    1
    54   131   126   am
    55   191   190    1
    56   112   113    1
    57   112   111    1
    58   187   188    2
    59   187   186    1
    60    72    71    1
    61   102   101   ar
    62   101   100    1
    63   156   165   am
    64   156   157    2
    65   165   166    1
    66   190   189    1
    67   111   106   am
    68   126   127    2
    69   126   125    1
    70   172   174   ar
    71   172   170   ar
    72   189   186    1
    73   174   175   ar
    74   186   185    1
    75   169   170    1
    76   169   166    1
    77   170   171   ar
    78   110   108    1
    79    71    70    1
    80   166   167    1
    81   175   173   ar
    82   100    97    1
    83   167   168    2
    84   106   107    2
    85   106   105    1
    86   171   173   ar
    87    70    67    1
    88   125   128    1
    89   125   124    1
    90   128   130    1
    91   128   129    1
    92   185   178   am
    93   179   178    2
    94    34    32   ar
    95    31    32    1
    96    31    28    1
    97   104   105    1
    98   104    98   am
    99    32    33   ar
   100   108   105    1
   101   108   109    1
   102    97    98    1
   103    97    96    1
   104   178   177    1
   105    98    99    2
   106   124   120   am
   107   209   210   ar
   108   209   207   ar
   109    67    68    1
   110    67    66    1
   111   183   182   ar
   112   180   177    1
   113   180   181    1
   114    27    28    1
   115    27    25   am
   116   121   120    2
   117   210   208   ar
   118    68    77   am
   119    68    69    2
   120    77    78    1
   121    28    29    1
   122   120   119    1
   123    66    63   am
   124    96    88   am
   125   207   206   ar
   126   177   176    1
   127    78    81    1
   128    78    79    1
   129    82    81    1
   130    82    83    1
   131    24    25    1
   132    24    23    1
   133    53    51    1
   134    52    51    1
   135    51    50    2
   136    89    88    2
   137    85    83   am
   138   181   182    1
   139    50    49    1
   140   182   184   ar
   141    83    84    2
   142    35    29   am
   143    35    36    1
   144    25    26    2
   145    49    48    1
   146    88    87    1
   147    29    30    2
   148    21    20    1
   149   208   206   ar
   150   119   118    1
   151   119   122    1
   152    19    18    2
   153    39    36    1
   154    39    40    1
   155    63    62    1
   156    63    64    2
   157   206   205    1
   158    23    18   am
   159    79    80    2
   160    65    62    1
   161   123   122    1
   162    13    12    1
   163    13    14    1
   164    36    37    1
   165    18    17    1
   166    42    40    1
   167    62    61    1
   168    41    40    1
   169   222   221    1
   170   201   202    1
   171    20    17    1
   172    20    22    1
   173    87    86    1
   174    87    90    1
   175    48    47    1
   176    12     3   am
   177    15    14    2
   178    94    95   ar
   179    94    92   ar
   180    95    93   ar
   181   205   202    1
   182    92    91   ar
   183    17    16    1
   184    93    91   ar
   185   202   203    1
   186    91    90    1
   187     4     3    2
   188    47    44    1
   189     3     2    1
   190   203   204    2
   191     5     6    1
   192     5     2    1
   193    37    38    2
   194    61    56   am
   195   221   220   ar
   196   221   219   ar
   197     8     6   ar
   198     8    10   ar
   199   220   218   ar
   200    57    56    2
   201     6     7   ar
   202     2     1    1
   203    10    11   ar
   204    56    55    1
   205   219   217   ar
   206    44    43    1
   207    44    45    1
   208    59    58    1
   209     7     9   ar
   210   218   216   ar
   211    11     9   ar
   212    45    46    2
   213    60    58    1
   214    55    58    1
   215    55    54    1
   216   217   216   ar
   217   216   215    1
   218   215   212    1
   219   211   212    1
   220   212   213    1
   221   213   214    2
