@<TRIPOS>MOLECULE
tmp/1h9gA01.pdb
 161 154 0 0 0
SMALL
GASTEIGER

@<TRIPOS>ATOM
      1  N         39.5340   25.8790   26.8170 N.3    76  LEU76      -0.1245
      2  CA        39.2790   27.1030   26.0690 C.3    76  LEU76       0.1561
      3  C         37.8560   27.2620   25.5460 C.2    76  LEU76       0.2260
      4  O         37.3770   28.3830   25.4120 O.2    76  LEU76      -0.2867
      5  CB        40.2460   27.2070   24.8950 C.3    76  LEU76       0.0270
      6  CG        41.6880   27.5160   25.2840 C.3    76  LEU76       0.0019
      7  CD1       42.5780   27.4880   24.0500 C.3    76  LEU76       0.0001
      8  CD2       41.7250   28.8580   25.9690 C.3    76  LEU76       0.0001
      9  N         43.2040   37.3610   26.6620 N.3    97  LEU97      -0.1231
     10  CA        43.2400   36.5900   25.4310 C.3    97  LEU97       0.1693
     11  C         44.1300   37.2240   24.3490 C.2    97  LEU97       0.2591
     12  O         44.8360   36.5290   23.6210 O.2    97  LEU97      -0.2718
     13  CB        41.8080   36.4560   24.9150 C.3    97  LEU97       0.0284
     14  CG        41.5140   35.5060   23.7670 C.3    97  LEU97       0.0019
     15  CD1       41.7700   34.0670   24.2120 C.3    97  LEU97       0.0001
     16  CD2       40.0570   35.6850   23.3500 C.3    97  LEU97       0.0001
     17  N         44.1070   38.5440   24.2580 N.am   98  LEU98      -0.1980
     18  CA        44.9150   39.2380   23.2740 C.3    98  LEU98       0.1596
     19  C         46.3920   39.2350   23.7000 C.2    98  LEU98       0.2287
     20  O         47.2880   39.1870   22.8610 O.2    98  LEU98      -0.2864
     21  CB        44.3540   40.6550   23.0630 C.3    98  LEU98       0.0297
     22  CG        42.9450   40.6140   22.4210 C.3    98  LEU98       0.0022
     23  CD1       42.3060   41.9940   22.4020 C.3    98  LEU98       0.0001
     24  CD2       43.0470   40.0760   20.9810 C.3    98  LEU98       0.0001
     25  N         47.7310   36.7560   25.4160 N.3   100  VAL100     -0.1231
     26  CA        48.1350   35.4030   25.0820 C.3   100  VAL100      0.1692
     27  C         48.3940   35.3130   23.5590 C.2   100  VAL100      0.2591
     28  O         49.3990   34.7470   23.0960 O.2   100  VAL100     -0.2718
     29  CB        47.0440   34.3670   25.4790 C.3   100  VAL100      0.0266
     30  CG1       47.3870   33.0100   24.8800 C.3   100  VAL100      0.0020
     31  CG2       46.9390   34.2730   27.0020 C.3   100  VAL100      0.0020
     32  N         47.4950   35.8860   22.7750 N.am  101  ARG101     -0.1980
     33  CA        47.6950   35.8220   21.3480 C.3   101  ARG101      0.1597
     34  C         49.0390   36.4280   20.9470 C.2   101  ARG101      0.2287
     35  O         49.7630   35.8670   20.1400 O.2   101  ARG101     -0.2864
     36  CB        46.5930   36.5440   20.5880 C.3   101  ARG101      0.0334
     37  CG        46.7850   36.3100   19.1150 C.3   101  ARG101      0.0492
     38  CD        45.8360   37.0760   18.2640 C.3   101  ARG101      0.2205
     39  NE        46.1390   38.5040   18.2340 N.pl3 101  ARG101     -0.0865
     40  CZ        45.7640   39.3110   17.2410 C.cat 101  ARG101      0.5346
     41  NH1       45.0860   38.8220   16.1990 N.pl3 101  ARG101      0.1354
     42  NH2       46.0420   40.6030   17.3090 N.pl3 101  ARG101      0.1354
     43  N         52.0950   34.0250   22.4910 N.3   104  ILE104     -0.1245
     44  CA        52.4140   32.7400   21.9090 C.3   104  ILE104      0.1561
     45  C         52.6080   32.8770   20.4110 C.2   104  ILE104      0.2260
     46  O         53.2590   32.0360   19.8020 O.2   104  ILE104     -0.2867
     47  CB        51.3900   31.5850   22.2510 C.3   104  ILE104      0.0252
     48  CG1       50.2780   31.5220   21.2260 C.3   104  ILE104      0.0019
     49  CG2       50.8800   31.7410   23.7060 C.3   104  ILE104      0.0019
     50  CD1       49.1730   32.4900   21.4770 C.3   104  ILE104      0.0001
     51  N         42.7170   38.5640    9.3500 N.3   141  ASP141     -0.1239
     52  CA        43.5530   38.5080   10.5460 C.3   141  ASP141      0.1674
     53  C         43.5440   37.1080   11.1860 C.2   141  ASP141      0.2266
     54  O         44.6090   36.5390   11.5010 O.2   141  ASP141     -0.2867
     55  CB        43.0830   39.5710   11.5360 C.3   141  ASP141      0.1410
     56  CG        44.0080   39.7160   12.7230 C.2   141  ASP141      0.3668
     57  OD1       43.6330   39.2370   13.8070 O.co2 141  ASP141     -0.2456
     58  OD2       45.1060   40.3150   12.5800 O.co2 141  ASP141     -0.2456
     59  N         45.0740   25.2080   19.4320 N.3   160  ILE160     -0.1231
     60  CA        44.7720   26.2140   20.4190 C.3   160  ILE160      0.1692
     61  C         43.8770   27.2660   19.7610 C.2   160  ILE160      0.2591
     62  O         42.7760   27.5510   20.2440 O.2   160  ILE160     -0.2718
     63  CB        46.0570   26.8420   20.9610 C.3   160  ILE160      0.0266
     64  CG1       46.7570   25.8270   21.8680 C.3   160  ILE160      0.0019
     65  CG2       45.7450   28.1330   21.7050 C.3   160  ILE160      0.0020
     66  CD1       48.1120   26.2570   22.3340 C.3   160  ILE160      0.0001
     67  N         44.3300   27.7910   18.6270 N.am  161  LEU161     -0.1980
     68  CA        43.5960   28.8110   17.8870 C.3   161  LEU161      0.1596
     69  C         42.2550   28.4050   17.2900 C.2   161  LEU161      0.2287
     70  O         41.3500   29.2310   17.2050 O.2   161  LEU161     -0.2864
     71  CB        44.4790   29.3530   16.7620 C.3   161  LEU161      0.0297
     72  CG        45.6400   30.2160   17.2380 C.3   161  LEU161      0.0022
     73  CD1       46.6370   30.4060   16.1310 C.3   161  LEU161      0.0001
     74  CD2       45.0830   31.5470   17.7040 C.3   161  LEU161      0.0001
     75  N         38.6190   29.6490   18.6820 N.3   164  MET164     -0.1245
     76  CA        38.2930   31.0730   18.7640 C.3   164  MET164      0.1570
     77  C         37.7370   31.7330   17.5190 C.2   164  MET164      0.2261
     78  O         37.2770   32.8620   17.6050 O.2   164  MET164     -0.2867
     79  CB        39.4970   31.8960   19.2300 C.3   164  MET164      0.0387
     80  CG        39.8380   31.7550   20.6880 C.3   164  MET164      0.0595
     81  SD        40.6880   30.2210   21.0100 S.3   164  MET164     -0.1393
     82  CE        39.3140   29.1740   21.5940 C.3   164  MET164      0.0692
     83  N         36.9470   35.1310   17.9680 N.3   168  TYR168     -0.1241
     84  CA        38.0060   35.8490   17.2950 C.3   168  TYR168      0.1605
     85  C         37.4330   36.8660   16.3240 C.2   168  TYR168      0.2264
     86  O         37.6560   38.0620   16.4820 O.2   168  TYR168     -0.2867
     87  CB        38.8780   34.8390   16.5480 C.3   168  TYR168      0.0534
     88  CG        40.2430   35.3350   16.1410 C.ar  168  TYR168     -0.0201
     89  CD1       41.3970   34.7400   16.6530 C.ar  168  TYR168     -0.0009
     90  CD2       40.3860   36.3890   15.2300 C.ar  168  TYR168     -0.0009
     91  CE1       42.6600   35.1790   16.2650 C.ar  168  TYR168      0.0417
     92  CE2       41.6510   36.8380   14.8350 C.ar  168  TYR168      0.0417
     93  CZ        42.7790   36.2280   15.3540 C.ar  168  TYR168      0.1957
     94  OH        44.0250   36.6400   14.9440 O.3   168  TYR168     -0.2866
     95  N         35.4910   39.8370   18.1190 N.3   171  ILE171     -0.1231
     96  CA        36.3170   40.9460   18.5970 C.3   171  ILE171      0.1692
     97  C         36.8700   41.6910   17.3640 C.2   171  ILE171      0.2592
     98  O         36.8270   42.9150   17.2930 O.2   171  ILE171     -0.2718
     99  CB        37.5090   40.4420   19.4580 C.3   171  ILE171      0.0266
    100  CG1       37.0120   39.9480   20.8220 C.3   171  ILE171      0.0019
    101  CG2       38.5450   41.5330   19.6200 C.3   171  ILE171      0.0020
    102  CD1       36.7790   38.4400   20.8880 C.3   171  ILE171      0.0001
    103  N         37.3690   40.9330   16.3930 N.am  172  GLY172     -0.1957
    104  CA        37.9050   41.5220   15.1800 C.3   172  GLY172      0.1869
    105  C         36.9490   42.4050   14.3790 C.2   172  GLY172      0.2309
    106  O         37.3550   43.4570   13.8830 O.2   172  GLY172     -0.2863
    107  N         36.8220   45.6680   16.2150 N.3   175  TYR175     -0.1227
    108  CA        38.1310   46.3240   16.1210 C.3   175  TYR175      0.1736
    109  C         38.4560   46.8590   14.7200 C.2   175  TYR175      0.2595
    110  O         38.8280   48.0210   14.5550 O.2   175  TYR175     -0.2718
    111  CB        39.2380   45.3470   16.5810 C.3   175  TYR175      0.0548
    112  CG        40.6730   45.8790   16.4810 C.ar  175  TYR175     -0.0200
    113  CD1       41.1190   46.9310   17.2990 C.ar  175  TYR175     -0.0009
    114  CD2       41.5740   45.3370   15.5620 C.ar  175  TYR175     -0.0009
    115  CE1       42.4310   47.4300   17.1950 C.ar  175  TYR175      0.0417
    116  CE2       42.8810   45.8230   15.4520 C.ar  175  TYR175      0.0417
    117  CZ        43.2990   46.8700   16.2670 C.ar  175  TYR175      0.1957
    118  OH        44.5750   47.3650   16.1300 O.3   175  TYR175     -0.2866
    119  N         38.2910   46.0190   13.7090 N.am  176  PHE176     -0.1976
    120  CA        38.6130   46.4310   12.3600 C.3   176  PHE176      0.1639
    121  C         37.6280   47.3520   11.6600 C.2   176  PHE176      0.2290
    122  O         37.7420   47.5740   10.4530 O.2   176  PHE176     -0.2864
    123  CB        38.9120   45.2070   11.4990 C.3   176  PHE176      0.0560
    124  CG        40.2300   44.5530   11.8380 C.ar  176  PHE176     -0.0200
    125  CD1       41.4170   45.2730   11.7200 C.ar  176  PHE176     -0.0042
    126  CD2       40.2790   43.2400   12.3120 C.ar  176  PHE176     -0.0042
    127  CE1       42.6470   44.6990   12.0710 C.ar  176  PHE176     -0.0003
    128  CE2       41.4920   42.6540   12.6650 C.ar  176  PHE176     -0.0003
    129  CZ        42.6880   43.3940   12.5420 C.ar  176  PHE176     -0.0000
    130  N         53.4910   45.4460   17.8750 N.3   211  TYR211     -0.1241
    131  CA        52.1720   45.4610   17.2740 C.3   211  TYR211      0.1605
    132  C         51.1370   45.1720   18.3710 C.2   211  TYR211      0.2264
    133  O         50.0190   45.6770   18.3190 O.2   211  TYR211     -0.2867
    134  CB        52.0680   44.4130   16.1680 C.3   211  TYR211      0.0534
    135  CG        50.6870   44.3310   15.5680 C.ar  211  TYR211     -0.0201
    136  CD1       50.1720   45.3720   14.7830 C.ar  211  TYR211     -0.0009
    137  CD2       49.8740   43.2180   15.8160 C.ar  211  TYR211     -0.0009
    138  CE1       48.8740   45.2980   14.2600 C.ar  211  TYR211      0.0417
    139  CE2       48.5950   43.1340   15.3140 C.ar  211  TYR211      0.0417
    140  CZ        48.0910   44.1730   14.5350 C.ar  211  TYR211      0.1957
    141  OH        46.8050   44.0630   14.0600 O.3   211  TYR211     -0.2866
    142  N         48.3230   47.9610   18.8350 N.3   215  SER215     -0.1217
    143  CA        46.9740   47.5440   18.5110 C.3   215  SER215      0.1889
    144  C         46.1980   47.6460   19.8170 C.2   215  SER215      0.2288
    145  O         44.9850   47.9060   19.8240 O.2   215  SER215     -0.2866
    146  CB        46.9570   46.1180   17.9500 C.3   215  SER215      0.2089
    147  OG        47.4150   45.1640   18.8910 O.3   215  SER215     -0.2183
    148  N         42.6170   49.5280   20.3270 N.3   219  TRP219     -0.1241
    149  CA        41.5170   48.7480   20.8940 C.3   219  TRP219      0.1605
    150  C         40.9450   49.4150   22.1350 C.2   219  TRP219      0.2264
    151  O         39.7420   49.6260   22.2310 O.2   219  TRP219     -0.2867
    152  CB        41.9900   47.3310   21.2530 C.3   219  TRP219      0.0550
    153  CG        40.9440   46.4880   21.9490 C.ar  219  TRP219      0.0003
    154  CD1       41.0450   45.8910   23.1880 C.ar  219  TRP219      0.0946
    155  CD2       39.6480   46.1370   21.4430 C.ar  219  TRP219      0.0152
    156  NE1       39.8930   45.1940   23.4700 N.ar  219  TRP219     -0.2442
    157  CE2       39.0210   45.3270   22.4200 C.ar  219  TRP219      0.0810
    158  CE3       38.9540   46.4290   20.2560 C.ar  219  TRP219      0.0012
    159  CZ2       37.7370   44.8070   22.2460 C.ar  219  TRP219      0.0191
    160  CZ3       37.6690   45.9100   20.0850 C.ar  219  TRP219      0.0001
    161  CH2       37.0770   45.1090   21.0750 C.ar  219  TRP219      0.0015
@<TRIPOS>BOND
     1    51    52    1
     2   122   121    2
     3    52    53    1
     4    52    55    1
     5    53    54    2
     6   123   124    1
     7   123   120    1
     8    55    56    1
     9   121   120    1
    10   125   124   ar
    11   125   127   ar
    12   124   126   ar
    13   127   129   ar
    14   126   128   ar
    15   120   119    1
    16   129   128   ar
    17    58    56   ar
    18    56    57   ar
    19   119   109   am
    20   106   105    2
    21   141   140    1
    22   138   140   ar
    23   138   136   ar
    24   105   104    1
    25   140   139   ar
    26   110   109    2
    27   109   108    1
    28   136   135   ar
    29    92    90   ar
    30    92    93   ar
    31    94    93    1
    32   104   103    1
    33    90    88   ar
    34   139   137   ar
    35    93    91   ar
    36   116   114   ar
    37   116   117   ar
    38   114   112   ar
    39   135   137   ar
    40   135   134    1
    41   108   107    1
    42   108   111    1
    43   118   117    1
    44    73    72    1
    45    88    87    1
    46    88    89   ar
    47   134   131    1
    48    41    40    1
    49    91    89   ar
    50   117   115   ar
    51    85    86    2
    52    85    84    1
    53   103    97   am
    54   112   111    1
    55   112   113   ar
    56    87    84    1
    57    71    72    1
    58    71    68    1
    59   115   113   ar
    60    70    69    2
    61    72    74    1
    62    40    42    1
    63    40    39    2
    64   131   130    1
    65   131   132    1
    66    69    68    1
    67    98    97    2
    68    84    83    1
    69    97    96    1
    70    77    78    2
    71    77    76    1
    72    68    67    1
    73   146   143    1
    74   146   147    1
    75    95    96    1
    76    39    38    1
    77    38    37    1
    78   133   132    2
    79   143   142    1
    80   143   144    1
    81    96    99    1
    82    67    61   am
    83    75    76    1
    84    76    79    1
    85    37    36    1
    86    79    80    1
    87    59    60    1
    88    99   101    1
    89    99   100    1
    90    61    62    2
    91    61    60    1
    92    46    45    2
    93   144   145    2
    94   160   158   ar
    95   160   161   ar
    96    35    34    2
    97   158   155   ar
    98   148   149    1
    99    45    44    1
   100    60    63    1
   101    36    33    1
   102    80    81    1
   103   100   102    1
   104   149   152    1
   105   149   150    1
   106    34    33    1
   107    63    65    1
   108    63    64    1
   109    24    22    1
   110    81    82    1
   111   161   159   ar
   112    48    50    1
   113    48    47    1
   114   152   153    1
   115    33    32    1
   116   155   153   ar
   117   155   157   ar
   118    64    66    1
   119    44    47    1
   120    44    43    1
   121   153   154   ar
   122   150   151    2
   123   159   157   ar
   124    47    49    1
   125    23    22    1
   126   157   156   ar
   127    22    21    1
   128    32    27   am
   129    20    19    2
   130    21    18    1
   131    28    27    2
   132   154   156   ar
   133    18    19    1
   134    18    17    1
   135    16    14    1
   136    27    26    1
   137    12    11    2
   138    14    15    1
   139    14    13    1
   140     7     6    1
   141    17    11   am
   142    11    10    1
   143    30    29    1
   144     5     6    1
   145     5     2    1
   146    13    10    1
   147    26    25    1
   148    26    29    1
   149     6     8    1
   150     4     3    2
   151    10     9    1
   152    29    31    1
   153     3     2    1
   154     2     1    1
