@<TRIPOS>MOLECULE
tmp/1h9gA00.pdb
 180 177 0 0 0
SMALL
GASTEIGER

@<TRIPOS>ATOM
      1  N         38.0030   41.7890   31.0140 N.3    92  GLN92      -0.1245
      2  CA        39.4070   41.5250   31.2850 C.3    92  GLN92       0.1566
      3  C         39.8960   40.2720   30.5590 C.2    92  GLN92       0.2260
      4  O         41.0780   40.1640   30.2370 O.2    92  GLN92      -0.2867
      5  CB        39.6580   41.3960   32.7910 C.3    92  GLN92       0.0367
      6  CG        41.1090   41.0290   33.1400 C.3    92  GLN92       0.0905
      7  CD        42.1660   41.9340   32.4750 C.2    92  GLN92       0.2608
      8  OE1       43.3560   41.6090   32.4750 O.2    92  GLN92      -0.2717
      9  NE2       41.7330   43.0650   31.9160 N.am   92  GLN92      -0.0878
     10  N         41.2700   40.9950   27.1180 N.3    95  ASP95      -0.1225
     11  CA        42.6210   41.5540   27.2190 C.3    95  ASP95       0.1805
     12  C         43.6110   40.4050   27.4590 C.2    95  ASP95       0.2597
     13  O         44.6700   40.3580   26.8440 O.2    95  ASP95      -0.2718
     14  CB        42.7350   42.5400   28.3820 C.3    95  ASP95       0.1424
     15  CG        42.0100   43.8500   28.1160 C.2    95  ASP95       0.3668
     16  OD1       42.1570   44.4120   27.0080 O.co2  95  ASP95      -0.2456
     17  OD2       41.3000   44.3250   29.0210 O.co2  95  ASP95      -0.2456
     18  N         43.2520   39.4980   28.3660 N.am   96  ASN96      -0.1974
     19  CA        44.0790   38.3420   28.6960 C.3    96  ASN96       0.1688
     20  C         44.2770   37.5110   27.4360 C.2    96  ASN96       0.2292
     21  O         45.3680   37.0260   27.1660 O.2    96  ASN96      -0.2864
     22  CB        43.3900   37.4720   29.7520 C.3    96  ASN96       0.1181
     23  CG        43.4110   38.0960   31.1490 C.2    96  ASN96       0.2629
     24  OD1       42.5620   37.7920   31.9600 O.2    96  ASN96      -0.2716
     25  ND2       44.3980   38.9520   31.4320 N.am   96  ASN96      -0.0877
     26  N         44.1070   38.5440   24.2580 N.3    98  LEU98      -0.1231
     27  CA        44.9150   39.2380   23.2740 C.3    98  LEU98       0.1693
     28  C         46.3920   39.2350   23.7000 C.2    98  LEU98       0.2592
     29  O         47.2880   39.1870   22.8610 O.2    98  LEU98      -0.2718
     30  CB        44.3540   40.6550   23.0630 C.3    98  LEU98       0.0284
     31  CG        42.9450   40.6140   22.4210 C.3    98  LEU98       0.0019
     32  CD1       42.3060   41.9940   22.4020 C.3    98  LEU98       0.0001
     33  CD2       43.0470   40.0760   20.9810 C.3    98  LEU98       0.0001
     34  N         46.6320   39.2570   25.0020 N.am   99  SER99      -0.1952
     35  CA        47.9930   39.1860   25.5440 C.3    99  SER99       0.1924
     36  C         48.5480   37.7890   25.1760 C.2    99  SER99       0.2314
     37  O         49.6840   37.6450   24.6590 O.2    99  SER99      -0.2863
     38  CB        47.9310   39.3540   27.0630 C.3    99  SER99       0.2116
     39  OG        49.1500   39.0140   27.6630 O.3    99  SER99      -0.2180
     40  N         47.4950   35.8860   22.7750 N.3   101  ARG101     -0.1231
     41  CA        47.6950   35.8220   21.3480 C.3   101  ARG101      0.1694
     42  C         49.0390   36.4280   20.9470 C.2   101  ARG101      0.2593
     43  O         49.7630   35.8670   20.1400 O.2   101  ARG101     -0.2718
     44  CB        46.5930   36.5440   20.5880 C.3   101  ARG101      0.0321
     45  CG        46.7850   36.3100   19.1150 C.3   101  ARG101      0.0489
     46  CD        45.8360   37.0760   18.2640 C.3   101  ARG101      0.2205
     47  NE        46.1390   38.5040   18.2340 N.pl3 101  ARG101     -0.0865
     48  CZ        45.7640   39.3110   17.2410 C.cat 101  ARG101      0.5346
     49  NH1       45.0860   38.8220   16.1990 N.pl3 101  ARG101      0.1354
     50  NH2       46.0420   40.6030   17.3090 N.pl3 101  ARG101      0.1354
     51  N         49.3630   37.5790   21.5180 N.am  102  THR102     -0.1939
     52  CA        50.6200   38.2330   21.1930 C.3   102  THR102      0.2028
     53  C         51.8180   37.3860   21.5870 C.2   102  THR102      0.2642
     54  O         52.7150   37.1130   20.7770 O.2   102  THR102     -0.2714
     55  CB        50.7230   39.6030   21.9230 C.3   102  THR102      0.1808
     56  OG1       49.8110   40.5210   21.3160 O.3   102  THR102     -0.2208
     57  CG2       52.1390   40.1590   21.8920 C.3   102  THR102      0.0379
     58  N         51.8150   36.9410   22.8310 N.am  103  ASN103     -0.1971
     59  CA        52.9440   36.1860   23.3010 C.3   103  ASN103      0.1688
     60  C         53.1460   34.8060   22.7020 C.2   103  ASN103      0.2292
     61  O         54.2870   34.4490   22.4020 O.2   103  ASN103     -0.2864
     62  CB        52.9350   36.1690   24.8270 C.3   103  ASN103      0.1181
     63  CG        53.2490   37.5430   25.3900 C.2   103  ASN103      0.2629
     64  OD1       54.1150   38.2430   24.8530 O.2   103  ASN103     -0.2716
     65  ND2       52.5570   37.9410   26.4470 N.am  103  ASN103     -0.0877
     66  N         35.4910   39.8370   18.1190 N.3   171  ILE171     -0.1231
     67  CA        36.3170   40.9460   18.5970 C.3   171  ILE171      0.1692
     68  C         36.8700   41.6910   17.3640 C.2   171  ILE171      0.2592
     69  O         36.8270   42.9150   17.2930 O.2   171  ILE171     -0.2718
     70  CB        37.5090   40.4420   19.4580 C.3   171  ILE171      0.0266
     71  CG1       37.0120   39.9480   20.8220 C.3   171  ILE171      0.0019
     72  CG2       38.5450   41.5330   19.6200 C.3   171  ILE171      0.0020
     73  CD1       36.7790   38.4400   20.8880 C.3   171  ILE171      0.0001
     74  N         37.3690   40.9330   16.3930 N.am  172  GLY172     -0.1957
     75  CA        37.9050   41.5220   15.1800 C.3   172  GLY172      0.1869
     76  C         36.9490   42.4050   14.3790 C.2   172  GLY172      0.2309
     77  O         37.3550   43.4570   13.8830 O.2   172  GLY172     -0.2863
     78  N         36.8220   45.6680   16.2150 N.3   175  TYR175     -0.1227
     79  CA        38.1310   46.3240   16.1210 C.3   175  TYR175      0.1736
     80  C         38.4560   46.8590   14.7200 C.2   175  TYR175      0.2595
     81  O         38.8280   48.0210   14.5550 O.2   175  TYR175     -0.2718
     82  CB        39.2380   45.3470   16.5810 C.3   175  TYR175      0.0548
     83  CG        40.6730   45.8790   16.4810 C.ar  175  TYR175     -0.0200
     84  CD1       41.1190   46.9310   17.2990 C.ar  175  TYR175     -0.0009
     85  CD2       41.5740   45.3370   15.5620 C.ar  175  TYR175     -0.0009
     86  CE1       42.4310   47.4300   17.1950 C.ar  175  TYR175      0.0417
     87  CE2       42.8810   45.8230   15.4520 C.ar  175  TYR175      0.0417
     88  CZ        43.2990   46.8700   16.2670 C.ar  175  TYR175      0.1957
     89  OH        44.5750   47.3650   16.1300 O.3   175  TYR175     -0.2866
     90  N         38.2910   46.0190   13.7090 N.am  176  PHE176     -0.1976
     91  CA        38.6130   46.4310   12.3600 C.3   176  PHE176      0.1639
     92  C         37.6280   47.3520   11.6600 C.2   176  PHE176      0.2290
     93  O         37.7420   47.5740   10.4530 O.2   176  PHE176     -0.2864
     94  CB        38.9120   45.2070   11.4990 C.3   176  PHE176      0.0560
     95  CG        40.2300   44.5530   11.8380 C.ar  176  PHE176     -0.0200
     96  CD1       41.4170   45.2730   11.7200 C.ar  176  PHE176     -0.0042
     97  CD2       40.2790   43.2400   12.3120 C.ar  176  PHE176     -0.0042
     98  CE1       42.6470   44.6990   12.0710 C.ar  176  PHE176     -0.0003
     99  CE2       41.4920   42.6540   12.6650 C.ar  176  PHE176     -0.0003
    100  CZ        42.6880   43.3940   12.5420 C.ar  176  PHE176     -0.0000
    101  N         55.4760   42.0430   19.6220 N.3   209  ARG209     -0.1245
    102  CA        55.1840   42.7310   20.8840 C.3   209  ARG209      0.1563
    103  C         54.7850   44.2000   20.5900 C.2   209  ARG209      0.2260
    104  O         53.8140   44.7220   21.1630 O.2   209  ARG209     -0.2867
    105  CB        56.4230   42.7090   21.8030 C.3   209  ARG209      0.0307
    106  CG        56.9370   41.3000   22.1970 C.3   209  ARG209      0.0489
    107  CD        56.2660   40.7820   23.4310 C.3   209  ARG209      0.2205
    108  NE        56.5100   41.6740   24.5600 N.pl3 209  ARG209     -0.0865
    109  CZ        55.7400   41.7410   25.6430 C.cat 209  ARG209      0.5346
    110  NH1       54.6680   40.9560   25.7640 N.pl3 209  ARG209      0.1354
    111  NH2       56.0070   42.6340   26.5790 N.pl3 209  ARG209      0.1354
    112  N         53.4910   45.4460   17.8750 N.3   211  TYR211     -0.1227
    113  CA        52.1720   45.4610   17.2740 C.3   211  TYR211      0.1736
    114  C         51.1370   45.1720   18.3710 C.2   211  TYR211      0.2596
    115  O         50.0190   45.6770   18.3190 O.2   211  TYR211     -0.2718
    116  CB        52.0680   44.4130   16.1680 C.3   211  TYR211      0.0548
    117  CG        50.6870   44.3310   15.5680 C.ar  211  TYR211     -0.0200
    118  CD1       50.1720   45.3720   14.7830 C.ar  211  TYR211     -0.0009
    119  CD2       49.8740   43.2180   15.8160 C.ar  211  TYR211     -0.0009
    120  CE1       48.8740   45.2980   14.2600 C.ar  211  TYR211      0.0417
    121  CE2       48.5950   43.1340   15.3140 C.ar  211  TYR211      0.0417
    122  CZ        48.0910   44.1730   14.5350 C.ar  211  TYR211      0.1957
    123  OH        46.8050   44.0630   14.0600 O.3   211  TYR211     -0.2866
    124  N         51.5230   44.3690   19.3660 N.am  212  GLY212     -0.1942
    125  CA        50.6110   44.0680   20.4550 C.3   212  GLY212      0.2014
    126  C         50.2780   45.3290   21.2360 C.2   212  GLY212      0.2638
    127  O         49.1050   45.6130   21.4760 O.2   212  GLY212     -0.2714
    128  N         51.3060   46.0780   21.6400 N.am  213  HIS213     -0.1973
    129  CA        51.1090   47.3170   22.3800 C.3   213  HIS213      0.1656
    130  C         50.2710   48.3250   21.5910 C.2   213  HIS213      0.2291
    131  O         49.2790   48.8420   22.0930 O.2   213  HIS213     -0.2864
    132  CB        52.4360   47.9600   22.7550 C.3   213  HIS213      0.0771
    133  CG        52.2770   49.2670   23.4640 C.ar  213  HIS213      0.0820
    134  ND1       51.9030   50.4250   22.8150 N.ar  213  HIS213     -0.2267
    135  CD2       52.4240   49.5990   24.7690 C.ar  213  HIS213      0.1154
    136  CE1       51.8330   51.4140   23.6880 C.ar  213  HIS213      0.1986
    137  NE2       52.1450   50.9410   24.8800 N.ar  213  HIS213     -0.2212
    138  N         48.3230   47.9610   18.8350 N.3   215  SER215     -0.1202
    139  CA        46.9740   47.5440   18.5110 C.3   215  SER215      0.2020
    140  C         46.1980   47.6460   19.8170 C.2   215  SER215      0.2619
    141  O         44.9850   47.9060   19.8240 O.2   215  SER215     -0.2717
    142  CB        46.9570   46.1180   17.9500 C.3   215  SER215      0.2103
    143  OG        47.4150   45.1640   18.8910 O.3   215  SER215     -0.2182
    144  N         46.9220   47.4780   20.9220 N.am  216  GLY216     -0.1942
    145  CA        46.3150   47.5860   22.2350 C.3   216  GLY216      0.2014
    146  C         45.8020   48.9980   22.4970 C.2   216  GLY216      0.2638
    147  O         44.7160   49.1740   23.0480 O.2   216  GLY216     -0.2714
    148  N         46.5780   49.9990   22.0930 N.am  217  GLU217     -0.1977
    149  CA        46.1870   51.3990   22.2730 C.3   217  GLU217      0.1602
    150  C         44.9240   51.7060   21.4730 C.2   217  GLU217      0.2287
    151  O         44.0100   52.3660   21.9650 O.2   217  GLU217     -0.2864
    152  CB        47.3010   52.3360   21.8020 C.3   217  GLU217      0.0415
    153  CG        48.5720   52.2200   22.5970 C.3   217  GLU217      0.1163
    154  CD        48.3780   52.6590   24.0300 C.2   217  GLU217      0.3649
    155  OE1       47.4980   52.0930   24.7150 O.co2 217  GLU217     -0.2457
    156  OE2       49.1050   53.5700   24.4690 O.co2 217  GLU217     -0.2457
    157  N         42.6170   49.5280   20.3270 N.3   219  TRP219     -0.1227
    158  CA        41.5170   48.7480   20.8940 C.3   219  TRP219      0.1737
    159  C         40.9450   49.4150   22.1350 C.2   219  TRP219      0.2595
    160  O         39.7420   49.6260   22.2310 O.2   219  TRP219     -0.2718
    161  CB        41.9900   47.3310   21.2530 C.3   219  TRP219      0.0564
    162  CG        40.9440   46.4880   21.9490 C.ar  219  TRP219      0.0003
    163  CD1       41.0450   45.8910   23.1880 C.ar  219  TRP219      0.0946
    164  CD2       39.6480   46.1370   21.4430 C.ar  219  TRP219      0.0152
    165  NE1       39.8930   45.1940   23.4700 N.ar  219  TRP219     -0.2442
    166  CE2       39.0210   45.3270   22.4200 C.ar  219  TRP219      0.0810
    167  CE3       38.9540   46.4290   20.2560 C.ar  219  TRP219      0.0012
    168  CZ2       37.7370   44.8070   22.2460 C.ar  219  TRP219      0.0191
    169  CZ3       37.6690   45.9100   20.0850 C.ar  219  TRP219      0.0001
    170  CH2       37.0770   45.1090   21.0750 C.ar  219  TRP219      0.0015
    171  N         41.8100   49.7390   23.0850 N.am  220  HIS220     -0.1975
    172  CA        41.3710   50.3860   24.3040 C.3   220  HIS220      0.1656
    173  C         40.6550   51.7090   24.0180 C.2   220  HIS220      0.2291
    174  O         39.5580   51.9230   24.5220 O.2   220  HIS220     -0.2864
    175  CB        42.5680   50.5760   25.2320 C.3   220  HIS220      0.0771
    176  CG        43.1040   49.2860   25.7660 C.ar  220  HIS220      0.0820
    177  ND1       44.4500   48.9940   25.8080 N.ar  220  HIS220     -0.2267
    178  CD2       42.4680   48.1970   26.2620 C.ar  220  HIS220      0.1154
    179  CE1       44.6210   47.7810   26.3040 C.ar  220  HIS220      0.1986
    180  NE2       43.4330   47.2760   26.5870 N.ar  220  HIS220     -0.2212
@<TRIPOS>BOND
     1    93    92    2
     2    94    95    1
     3    94    91    1
     4    92    91    1
     5    96    95   ar
     6    96    98   ar
     7    95    97   ar
     8    98   100   ar
     9    97    99   ar
    10    91    90    1
    11   100    99   ar
    12    90    80   am
    13    77    76    2
    14   123   122    1
    15   120   122   ar
    16   120   118   ar
    17    76    75    1
    18   122   121   ar
    19    81    80    2
    20    80    79    1
    21   118   117   ar
    22    75    74    1
    23   121   119   ar
    24    87    85   ar
    25    87    88   ar
    26    85    83   ar
    27   117   119   ar
    28   117   116    1
    29    79    78    1
    30    79    82    1
    31    89    88    1
    32   116   113    1
    33    49    48    1
    34    88    86   ar
    35    74    68   am
    36    83    82    1
    37    83    84   ar
    38    86    84   ar
    39    48    50    1
    40    48    47    2
    41   113   112    1
    42   113   114    1
    43    69    68    2
    44    68    67    1
    45   142   139    1
    46   142   143    1
    47    66    67    1
    48    47    46    1
    49    46    45    1
    50   115   114    2
    51   114   124   am
    52   139   138    1
    53   139   140    1
    54    67    70    1
    55    45    44    1
    56   124   125    1
    57    70    72    1
    58    70    71    1
    59   101   102    1
    60   140   141    2
    61   140   144   am
    62   169   167   ar
    63   169   170   ar
    64    43    42    2
    65   167   164   ar
    66   157   158    1
    67   125   126    1
    68    44    41    1
    69   103   102    1
    70   103   104    2
    71    54    53    2
    72    71    73    1
    73   102   105    1
    74   158   161    1
    75   158   159    1
    76   144   145    1
    77    42    41    1
    78    42    51   am
    79    33    31    1
    80   170   168   ar
    81    52    51    1
    82    52    53    1
    83    52    55    1
    84   126   127    2
    85   126   128   am
    86   161   162    1
    87    56    55    1
    88    41    40    1
    89   164   162   ar
    90   164   166   ar
    91   150   151    2
    92   150   149    1
    93    53    58   am
    94   130   131    2
    95   130   129    1
    96   128   129    1
    97   152   149    1
    98   152   153    1
    99   105   106    1
   100    57    55    1
   101   162   163   ar
   102   148   149    1
   103   148   146   am
   104   159   160    2
   105   159   171   am
   106   106   107    1
   107   145   146    1
   108   168   166   ar
   109   129   132    1
   110    61    60    2
   111    32    31    1
   112   166   165   ar
   113    31    30    1
   114   146   147    2
   115   153   154    1
   116    60    59    1
   117   132   133    1
   118   134   133   ar
   119   134   136   ar
   120    58    59    1
   121    29    28    2
   122    30    27    1
   123   171   172    1
   124   163   165   ar
   125    27    28    1
   126    27    26    1
   127    59    62    1
   128   107   108    1
   129   133   135   ar
   130   136   137   ar
   131    28    34   am
   132   173   172    1
   133   173   174    2
   134   154   156   ar
   135   154   155   ar
   136   172   175    1
   137   108   109    2
   138    37    36    2
   139   135   137   ar
   140    62    63    1
   141    64    63    2
   142    34    35    1
   143    36    35    1
   144   175   176    1
   145    63    65   am
   146    35    38    1
   147   109   110    1
   148   109   111    1
   149   176   177   ar
   150   176   178   ar
   151   177   179   ar
   152   178   180   ar
   153   179   180   ar
   154    13    12    2
   155    16    15   ar
   156    38    39    1
   157    10    11    1
   158    21    20    2
   159    11    12    1
   160    11    14    1
   161    20    19    1
   162    12    18   am
   163    15    14    1
   164    15    17   ar
   165    18    19    1
   166    19    22    1
   167    22    23    1
   168     4     3    2
   169     3     2    1
   170     1     2    1
   171    23    25   am
   172    23    24    2
   173     2     5    1
   174     9     7   am
   175     8     7    2
   176     7     6    1
   177     5     6    1
