@<TRIPOS>MOLECULE
tmp/1h9uC00.pdb
 203 192 0 0 0
SMALL
GASTEIGER

@<TRIPOS>ATOM
      1  N        -31.5610  -24.5310  111.9170 N.3    15  VAL15      -0.1245
      2  CA       -31.6810  -25.9760  111.8830 C.3    15  VAL15       0.1561
      3  C        -33.1450  -26.4090  111.9530 C.2    15  VAL15       0.2260
      4  O        -33.5390  -27.3770  111.3000 O.2    15  VAL15      -0.2867
      5  CB       -30.8880  -26.6430  113.0140 C.3    15  VAL15       0.0252
      6  CG1      -31.1390  -28.1440  113.0010 C.3    15  VAL15       0.0019
      7  CG2      -29.4050  -26.3920  112.8230 C.3    15  VAL15       0.0019
      8  N        -34.5210  -25.7780  108.5020 N.3    18  ILE18      -0.1231
      9  CA       -33.9970  -26.7020  107.5140 C.3    18  ILE18       0.1692
     10  C        -34.6690  -28.0700  107.6320 C.2    18  ILE18       0.2592
     11  O        -35.0560  -28.6670  106.6230 O.2    18  ILE18      -0.2718
     12  CB       -32.4820  -26.8360  107.6630 C.3    18  ILE18       0.0266
     13  CG1      -31.8320  -25.4730  107.3640 C.3    18  ILE18       0.0019
     14  CG2      -31.9590  -27.8920  106.7240 C.3    18  ILE18       0.0020
     15  CD1      -30.3220  -25.4110  107.5270 C.3    18  ILE18       0.0001
     16  N        -34.8350  -28.5580  108.8590 N.am   19  CYS19      -0.1970
     17  CA       -35.4660  -29.8540  109.0690 C.3    19  CYS19       0.1712
     18  C        -36.9280  -29.8400  108.6530 C.2    19  CYS19       0.2296
     19  O        -37.4390  -30.8260  108.1130 O.2    19  CYS19      -0.2864
     20  CB       -35.3360  -30.2800  110.5250 C.3    19  CYS19       0.0983
     21  SG       -33.6340  -30.7240  110.9680 S.3    19  CYS19      -0.0798
     22  N        -38.0540  -28.0810  106.3590 N.3    21  ALA21      -0.1231
     23  CA       -37.9690  -28.0050  104.9150 C.3    21  ALA21       0.1694
     24  C        -37.8010  -29.4230  104.3890 C.2    21  ALA21       0.2591
     25  O        -38.5170  -29.8520  103.4830 O.2    21  ALA21      -0.2718
     26  CB       -36.7830  -27.1470  104.5020 C.3    21  ALA21       0.0304
     27  N        -36.8560  -30.1560  104.9610 N.am   22  ALA22      -0.1980
     28  CA       -36.6280  -31.5260  104.5310 C.3    22  ALA22       0.1597
     29  C        -37.9350  -32.2890  104.6760 C.2    22  ALA22       0.2287
     30  O        -38.3110  -33.0820  103.8060 O.2    22  ALA22      -0.2864
     31  CB       -35.5440  -32.1800  105.3730 C.3    22  ALA22       0.0319
     32  N        -40.3290  -31.8190  101.9330 N.3    25  GLN25      -0.1245
     33  CA       -39.8800  -32.5630  100.7710 C.3    25  GLN25       0.1566
     34  C        -40.1060  -34.0730  100.8280 C.2    25  GLN25       0.2260
     35  O        -40.3300  -34.7070   99.7890 O.2    25  GLN25      -0.2867
     36  CB       -38.4100  -32.2660  100.5080 C.3    25  GLN25       0.0367
     37  CG       -38.2110  -30.9030   99.8770 C.3    25  GLN25       0.0905
     38  CD       -38.8220  -30.8310   98.4880 C.2    25  GLN25       0.2608
     39  OE1      -38.1820  -31.1990   97.4980 O.2    25  GLN25      -0.2717
     40  NE2      -40.0700  -30.3830   98.4100 N.am   25  GLN25      -0.0878
     41  N        -32.9280  -41.0810  100.0380 N.3    55  TRP55      -0.1227
     42  CA       -33.6690  -39.8950  100.4250 C.3    55  TRP55       0.1737
     43  C        -32.8800  -38.6170  100.6960 C.2    55  TRP55       0.2595
     44  O        -33.2680  -37.5540  100.2120 O.2    55  TRP55      -0.2718
     45  CB       -34.5680  -40.1750  101.6430 C.3    55  TRP55       0.0564
     46  CG       -33.8390  -40.1990  102.9480 C.ar   55  TRP55       0.0003
     47  CD1      -33.2180  -41.2740  103.5280 C.ar   55  TRP55       0.0946
     48  CD2      -33.5660  -39.0770  103.7960 C.ar   55  TRP55       0.0152
     49  NE1      -32.5690  -40.8870  104.6810 N.ar   55  TRP55      -0.2442
     50  CE2      -32.7660  -39.5460  104.8700 C.ar   55  TRP55       0.0810
     51  CE3      -33.9100  -37.7210  103.7520 C.ar   55  TRP55       0.0012
     52  CZ2      -32.3090  -38.7050  105.8900 C.ar   55  TRP55       0.0191
     53  CZ3      -33.4520  -36.8860  104.7680 C.ar   55  TRP55       0.0001
     54  CH2      -32.6600  -37.3840  105.8240 C.ar   55  TRP55       0.0015
     55  N        -31.7910  -38.6740  101.4530 N.am   56  ASN56      -0.1974
     56  CA       -31.1040  -37.4240  101.7320 C.3    56  ASN56       0.1688
     57  C        -30.1960  -36.9320  100.6050 C.2    56  ASN56       0.2292
     58  O        -30.0850  -35.7210  100.4020 O.2    56  ASN56      -0.2864
     59  CB       -30.3670  -37.4700  103.1080 C.3    56  ASN56       0.1181
     60  CG       -29.0270  -38.2170  103.0640 C.2    56  ASN56       0.2629
     61  OD1      -28.9660  -39.4100  102.7540 O.2    56  ASN56      -0.2716
     62  ND2      -27.9510  -37.5070  103.3880 N.am   56  ASN56      -0.0877
     63  N        -32.6720  -35.3430   98.2750 N.3    59  LEU59      -0.1231
     64  CA       -33.0660  -34.0230   98.7550 C.3    59  LEU59       0.1693
     65  C        -31.9150  -32.9990   98.7000 C.2    59  LEU59       0.2591
     66  O        -32.1170  -31.8480   98.3080 O.2    59  LEU59      -0.2718
     67  CB       -33.6330  -34.1240  100.1790 C.3    59  LEU59       0.0284
     68  CG       -34.9600  -34.8550  100.4270 C.3    59  LEU59       0.0019
     69  CD1      -35.6470  -34.3560  101.7180 C.3    59  LEU59       0.0001
     70  CD2      -35.8690  -34.6060   99.2540 C.3    59  LEU59       0.0001
     71  N        -30.7110  -33.4190   99.0790 N.am   60  ILE60      -0.1980
     72  CA       -29.5620  -32.5290   99.0590 C.3    60  ILE60       0.1595
     73  C        -29.2930  -32.0110   97.6430 C.2    60  ILE60       0.2287
     74  O        -28.8270  -30.8830   97.4590 O.2    60  ILE60      -0.2864
     75  CB       -28.3020  -33.2470   99.6160 C.3    60  ILE60       0.0276
     76  CG1      -28.4190  -33.3690  101.1440 C.3    60  ILE60       0.0022
     77  CG2      -27.0310  -32.4930   99.2160 C.3    60  ILE60       0.0022
     78  CD1      -27.2880  -34.1450  101.8020 C.3    60  ILE60       0.0001
     79  N        -31.6810  -31.7020   95.3160 N.3    62  SER62      -0.1202
     80  CA       -32.8000  -30.8590   94.9640 C.3    62  SER62       0.2020
     81  C        -32.6080  -29.4480   95.5110 C.2    62  SER62       0.2618
     82  O        -32.6410  -28.4810   94.7540 O.2    62  SER62      -0.2717
     83  CB       -34.0930  -31.4750   95.5050 C.3    62  SER62       0.2103
     84  OG       -35.2430  -30.9250   94.8880 O.3    62  SER62      -0.2182
     85  N        -32.3850  -29.3140   96.8160 N.am   63  PHE63      -0.1975
     86  CA       -32.2220  -27.9760   97.3770 C.3    63  PHE63       0.1639
     87  C        -30.9520  -27.2870   96.8850 C.2    63  PHE63       0.2290
     88  O        -30.9070  -26.0680   96.7950 O.2    63  PHE63      -0.2864
     89  CB       -32.2800  -28.0020   98.9210 C.3    63  PHE63       0.0560
     90  CG       -30.9660  -28.2650   99.5970 C.ar   63  PHE63      -0.0200
     91  CD1      -29.8630  -27.4600   99.3600 C.ar   63  PHE63      -0.0042
     92  CD2      -30.8520  -29.2950  100.5190 C.ar   63  PHE63      -0.0042
     93  CE1      -28.6710  -27.6700  100.0200 C.ar   63  PHE63      -0.0003
     94  CE2      -29.6570  -29.5170  101.1960 C.ar   63  PHE63      -0.0003
     95  CZ       -28.5630  -28.7020  100.9460 C.ar   63  PHE63      -0.0000
     96  N        -31.8610  -25.8750   93.4380 N.3    66  ARG66      -0.1245
     97  CA       -32.8090  -24.7910   93.6760 C.3    66  ARG66       0.1563
     98  C        -32.1430  -23.5300   94.2250 C.2    66  ARG66       0.2260
     99  O        -32.7040  -22.4360   94.1370 O.2    66  ARG66      -0.2867
    100  CB       -33.8810  -25.2470   94.6670 C.3    66  ARG66       0.0307
    101  CG       -34.9200  -24.1970   95.0080 C.3    66  ARG66       0.0489
    102  CD       -35.5620  -24.4990   96.3590 C.3    66  ARG66       0.2205
    103  NE       -36.1610  -25.8300   96.4020 N.pl3  66  ARG66      -0.0865
    104  CZ       -36.0890  -26.6450   97.4470 C.cat  66  ARG66       0.5346
    105  NH1      -35.4380  -26.2600   98.5280 N.pl3  66  ARG66       0.1354
    106  NH2      -36.6640  -27.8370   97.4110 N.pl3  66  ARG66       0.1354
    107  N        -28.7560  -20.9680  100.8880 N.3    74  ILE74      -0.1245
    108  CA       -29.5530  -22.0730  100.4170 C.3    74  ILE74       0.1561
    109  C        -31.0080  -21.6330  100.3830 C.2    74  ILE74       0.2260
    110  O        -31.4420  -20.8430  101.2310 O.2    74  ILE74      -0.2867
    111  CB       -29.3410  -23.2940  101.3670 C.3    74  ILE74       0.0252
    112  CG1      -28.8460  -24.4770  100.5570 C.3    74  ILE74       0.0019
    113  CG2      -30.5940  -23.6180  102.1550 C.3    74  ILE74       0.0019
    114  CD1      -27.4720  -24.2670   99.9930 C.3    74  ILE74       0.0001
    115  N        -34.4560  -23.0430  100.8720 N.3    76  LEU76      -0.1231
    116  CA       -35.2500  -24.1510  101.3710 C.3    76  LEU76       0.1693
    117  C        -36.5180  -24.3980  100.5430 C.2    76  LEU76       0.2591
    118  O        -37.0180  -23.5120   99.8480 O.2    76  LEU76      -0.2718
    119  CB       -35.6250  -23.8910  102.8320 C.3    76  LEU76       0.0284
    120  CG       -34.4400  -23.6480  103.7700 C.3    76  LEU76       0.0019
    121  CD1      -34.9370  -23.4150  105.1850 C.3    76  LEU76       0.0001
    122  CD2      -33.5020  -24.8470  103.7150 C.3    76  LEU76       0.0001
    123  N        -37.0310  -25.6200  100.6180 N.am   77  ALA77      -0.1980
    124  CA       -38.2410  -25.9920   99.9030 C.3    77  ALA77       0.1597
    125  C        -39.4110  -25.2290  100.5290 C.2    77  ALA77       0.2287
    126  O        -40.5450  -25.2640  100.0470 O.2    77  ALA77      -0.2864
    127  CB       -38.4630  -27.4800  100.0430 C.3    77  ALA77       0.0319
    128  N        -23.3180  -25.5740  111.9670 N.3    92  VAL92      -0.1245
    129  CA       -23.2740  -26.4270  110.7870 C.3    92  VAL92       0.1561
    130  C        -22.5130  -25.7240  109.6680 C.2    92  VAL92       0.2260
    131  O        -22.8010  -25.9200  108.4850 O.2    92  VAL92      -0.2867
    132  CB       -24.6930  -26.7600  110.2970 C.3    92  VAL92       0.0252
    133  CG1      -25.4970  -27.3700  111.4360 C.3    92  VAL92       0.0019
    134  CG2      -25.3660  -25.5110  109.7650 C.3    92  VAL92       0.0019
    135  N        -20.0420  -28.1440  106.9620 N.3    95  ILE95      -0.1231
    136  CA       -20.7780  -28.8830  105.9320 C.3    95  ILE95       0.1692
    137  C        -21.5500  -27.9350  105.0280 C.2    95  ILE95       0.2592
    138  O        -21.6990  -28.1850  103.8380 O.2    95  ILE95      -0.2718
    139  CB       -21.7660  -29.9140  106.5420 C.3    95  ILE95       0.0266
    140  CG1      -22.3390  -30.7930  105.4300 C.3    95  ILE95       0.0019
    141  CG2      -22.8890  -29.2030  107.2960 C.3    95  ILE95       0.0020
    142  CD1      -23.3940  -31.7490  105.9020 C.3    95  ILE95       0.0001
    143  N        -22.0370  -26.8440  105.5990 N.am   96  PHE96      -0.1976
    144  CA       -22.7750  -25.8650  104.8230 C.3    96  PHE96       0.1639
    145  C        -21.8640  -25.3110  103.7240 C.2    96  PHE96       0.2290
    146  O        -22.3210  -25.0450  102.6090 O.2    96  PHE96      -0.2864
    147  CB       -23.2600  -24.7260  105.7120 C.3    96  PHE96       0.0560
    148  CG       -24.3360  -23.9080  105.0870 C.ar   96  PHE96      -0.0200
    149  CD1      -25.6500  -24.3630  105.0750 C.ar   96  PHE96      -0.0042
    150  CD2      -24.0340  -22.7030  104.4510 C.ar   96  PHE96      -0.0042
    151  CE1      -26.6530  -23.6270  104.4300 C.ar   96  PHE96      -0.0003
    152  CE2      -25.0240  -21.9620  103.8060 C.ar   96  PHE96      -0.0003
    153  CZ       -26.3360  -22.4200  103.7920 C.ar   96  PHE96      -0.0000
    154  N        -21.6670  -27.7180  100.8860 N.3    99  VAL99      -0.1245
    155  CA       -22.8390  -27.6140  100.0460 C.3    99  VAL99       0.1561
    156  C        -22.6300  -26.5250   98.9880 C.2    99  VAL99       0.2260
    157  O        -22.7320  -26.7930   97.7890 O.2    99  VAL99      -0.2867
    158  CB       -24.0760  -27.2780  100.8730 C.3    99  VAL99       0.0252
    159  CG1      -25.2640  -27.0540   99.9660 C.3    99  VAL99       0.0019
    160  CG2      -24.3520  -28.3910  101.8360 C.3    99  VAL99       0.0019
    161  N        -21.2040  -35.5700  101.3640 N.3   178  ILE178     -0.1245
    162  CA       -22.0200  -34.5690  102.0310 C.3   178  ILE178      0.1561
    163  C        -23.2140  -35.2160  102.7180 C.2   178  ILE178      0.2260
    164  O        -23.5400  -34.8780  103.8570 O.2   178  ILE178     -0.2867
    165  CB       -22.4970  -33.4860  101.0410 C.3   178  ILE178      0.0252
    166  CG1      -21.3130  -32.5820  100.6860 C.3   178  ILE178      0.0019
    167  CG2      -23.6580  -32.6810  101.6400 C.3   178  ILE178      0.0019
    168  CD1      -21.6410  -31.4490   99.7270 C.3   178  ILE178      0.0001
    169  N        -24.3400  -35.1000  106.4550 N.3   182  CYS182     -0.1235
    170  CA       -25.6420  -34.5650  106.8180 C.3   182  CYS182      0.1677
    171  C        -26.2880  -35.4220  107.9060 C.2   182  CYS182      0.2270
    172  O        -26.6610  -34.9180  108.9780 O.2   182  CYS182     -0.2867
    173  CB       -26.5540  -34.5040  105.5880 C.3   182  CYS182      0.0956
    174  SG       -28.2260  -33.8590  105.9320 S.3   182  CYS182     -0.0801
    175  N        -24.7430  -34.9840  111.4020 N.3   185  HIS185     -0.1226
    176  CA       -25.1720  -33.7760  112.1050 C.3   185  HIS185      0.1752
    177  C        -26.6130  -33.9600  112.5660 C.2   185  HIS185      0.2595
    178  O        -26.9650  -33.5630  113.6730 O.2   185  HIS185     -0.2718
    179  CB       -25.0670  -32.5430  111.2000 C.3   185  HIS185      0.0759
    180  CG       -23.6610  -32.1560  110.8620 C.ar  185  HIS185      0.0818
    181  ND1      -23.1320  -30.9200  111.1720 N.ar  185  HIS185     -0.2268
    182  CD2      -22.6720  -32.8380  110.2330 C.ar  185  HIS185      0.1154
    183  CE1      -21.8820  -30.8570  110.7470 C.ar  185  HIS185      0.1986
    184  NE2      -21.5770  -32.0100  110.1750 N.ar  185  HIS185     -0.2212
    185  N        -27.4410  -34.5720  111.7160 N.am  186  LEU186     -0.1980
    186  CA       -28.8460  -34.8290  112.0470 C.3   186  LEU186      0.1596
    187  C        -29.0110  -35.6430  113.3320 C.2   186  LEU186      0.2287
    188  O        -29.9200  -35.3890  114.1280 O.2   186  LEU186     -0.2864
    189  CB       -29.5440  -35.5550  110.9000 C.3   186  LEU186      0.0297
    190  CG       -30.3860  -34.7060  109.9600 C.3   186  LEU186      0.0022
    191  CD1      -31.1520  -35.6310  109.0680 C.3   186  LEU186      0.0001
    192  CD2      -31.3550  -33.8480  110.7430 C.3   186  LEU186      0.0001
    193  N        -28.0500  -33.2480  116.4410 N.3   189  PHE189     -0.1241
    194  CA       -29.0990  -32.3160  116.8280 C.3   189  PHE189      0.1605
    195  C        -30.3190  -33.0250  117.3720 C.2   189  PHE189      0.2264
    196  O        -31.0090  -32.4950  118.2490 O.2   189  PHE189     -0.2867
    197  CB       -29.4830  -31.4160  115.6480 C.3   189  PHE189      0.0534
    198  CG       -28.4410  -30.3930  115.3170 C.ar  189  PHE189     -0.0203
    199  CD1      -27.7710  -30.4260  114.1020 C.ar  189  PHE189     -0.0042
    200  CD2      -28.0860  -29.4270  116.2500 C.ar  189  PHE189     -0.0042
    201  CE1      -26.7600  -29.5150  113.8300 C.ar  189  PHE189     -0.0003
    202  CE2      -27.0790  -28.5170  115.9870 C.ar  189  PHE189     -0.0003
    203  CZ       -26.4140  -28.5610  114.7770 C.ar  189  PHE189     -0.0000
@<TRIPOS>BOND
     1    96    97    1
     2    97    98    1
     3    97   100    1
     4    99    98    2
     5   100   101    1
     6    82    81    2
     7    84    83    1
     8    80    79    1
     9    80    83    1
    10    80    81    1
    11   101   102    1
    12    81    85   am
    13   102   103    1
    14   103   104    2
    15    88    87    2
    16    85    86    1
    17    87    86    1
    18    86    89    1
    19   106   104    1
    20   104   105    1
    21    74    73    2
    22    39    38    2
    23    73    72    1
    24   157   156    2
    25    63    64    1
    26    66    65    2
    27    40    38   am
    28    38    37    1
    29    65    64    1
    30    65    71   am
    31    64    67    1
    32    89    90    1
    33   156   155    1
    34    72    71    1
    35    72    75    1
    36    77    75    1
    37    70    68    1
    38    91    90   ar
    39    91    93   ar
    40    90    92   ar
    41    75    76    1
    42   168   166    1
    43    35    34    2
    44   118   117    2
    45    37    36    1
    46   124   127    1
    47   124   125    1
    48   124   123    1
    49   159   158    1
    50   114   112    1
    51    93    95   ar
    52    41    42    1
    53   155   158    1
    54   155   154    1
    55   126   125    2
    56    67    68    1
    57    44    43    2
    58   109   108    1
    59   109   110    2
    60    58    57    2
    61   108   107    1
    62   108   111    1
    63    42    43    1
    64    42    45    1
    65    68    69    1
    66    36    33    1
    67    92    94   ar
    68   117   123   am
    69   117   116    1
    70   112   111    1
    71    57    56    1
    72   166   165    1
    73    43    55   am
    74    33    34    1
    75    33    32    1
    76   115   116    1
    77   158   160    1
    78    95    94   ar
    79   165   167    1
    80   165   162    1
    81    76    78    1
    82   161   162    1
    83   111   113    1
    84   116   119    1
    85    55    56    1
    86    45    46    1
    87    56    59    1
    88   162   163    1
    89   146   145    2
    90   163   164    2
    91    61    60    2
    92   119   120    1
    93    46    47   ar
    94    46    48   ar
    95    60    59    1
    96    60    62   am
    97    25    24    2
    98    47    49   ar
    99   122   120    1
   100   145   144    1
   101    51    48   ar
   102    51    53   ar
   103   120   121    1
   104   153   152   ar
   105   153   151   ar
   106    48    50   ar
   107    30    29    2
   108   152   150   ar
   109   138   137    2
   110    24    23    1
   111    24    27   am
   112   151   149   ar
   113   150   148   ar
   114    26    23    1
   115    28    29    1
   116    28    27    1
   117    28    31    1
   118    49    50   ar
   119    53    54   ar
   120   144   143    1
   121   144   147    1
   122    50    52   ar
   123    23    22    1
   124   137   143   am
   125   137   136    1
   126   149   148   ar
   127   148   147    1
   128   140   142    1
   129   140   139    1
   130   173   174    1
   131   173   170    1
   132    54    52   ar
   133   136   139    1
   134   136   135    1
   135   169   170    1
   136   139   141    1
   137    11    10    2
   138    14    12    1
   139   170   171    1
   140    13    15    1
   141    13    12    1
   142     9    10    1
   143     9    12    1
   144     9     8    1
   145    10    16   am
   146   171   172    2
   147    19    18    2
   148   131   130    2
   149    18    17    1
   150    16    17    1
   151   191   190    1
   152    17    20    1
   153   130   129    1
   154   134   132    1
   155   190   192    1
   156   190   189    1
   157   184   182   ar
   158   184   183   ar
   159   182   180   ar
   160   132   129    1
   161   132   133    1
   162    20    21    1
   163   183   181   ar
   164   129   128    1
   165   180   181   ar
   166   180   179    1
   167   189   186    1
   168   179   176    1
   169     4     3    2
   170   175   176    1
   171   185   186    1
   172   185   177   am
   173     2     1    1
   174     2     3    1
   175     2     5    1
   176   186   187    1
   177   176   177    1
   178   177   178    2
   179     7     5    1
   180     6     5    1
   181   187   188    2
   182   201   199   ar
   183   201   203   ar
   184   199   198   ar
   185   203   202   ar
   186   198   197    1
   187   198   200   ar
   188   197   194    1
   189   202   200   ar
   190   193   194    1
   191   194   195    1
   192   195   196    2
