@<TRIPOS>MOLECULE
tmp/1h9xB02.pdb
 81 76 0 0 0
SMALL
GASTEIGER

@<TRIPOS>ATOM
      1  N         78.5920   24.4950  240.6470 N.3    70  ASN70      -0.1240
      2  CA        77.8410   23.3160  240.2230 C.3    70  ASN70       0.1653
      3  C         76.9840   23.7130  239.0180 C.2    70  ASN70       0.2266
      4  O         75.7810   23.9400  239.1270 O.2    70  ASN70      -0.2867
      5  CB        76.9610   22.7530  241.3480 C.3    70  ASN70       0.1155
      6  CG        76.2270   23.8050  242.1260 C.2    70  ASN70       0.2627
      7  OD1       76.9030   24.6590  242.7120 O.2    70  ASN70      -0.2716
      8  ND2       74.8860   23.8170  242.2030 N.am   70  ASN70      -0.0877
      9  N         72.7230   23.4600  239.1990 N.3    74  SER74      -0.1217
     10  CA        72.0740   24.7530  239.4220 C.3    74  SER74       0.1889
     11  C         71.1740   25.1180  238.2420 C.2    74  SER74       0.2288
     12  O         70.3380   26.0210  238.3580 O.2    74  SER74      -0.2866
     13  CB        73.1010   25.8740  239.6220 C.3    74  SER74       0.2089
     14  OG        73.8870   26.0300  238.4490 O.3    74  SER74      -0.2183
     15  N         72.4350   26.3380  235.5280 N.3    76  GLU76      -0.1245
     16  CA        73.2690   27.3440  234.9100 C.3    76  GLU76       0.1567
     17  C         73.6980   26.9580  233.4990 C.2    76  GLU76       0.2260
     18  O         73.8210   27.8200  232.6350 O.2    76  GLU76      -0.2867
     19  CB        74.5370   27.5540  235.7460 C.3    76  GLU76       0.0388
     20  CG        74.7300   28.9910  236.2020 C.3    76  GLU76       0.1160
     21  CD        73.8530   29.2620  237.4190 C.2    76  GLU76       0.3649
     22  OE1       72.6220   29.2660  237.1930 O.co2  76  GLU76      -0.2457
     23  OE2       74.4020   29.4560  238.5240 O.co2  76  GLU76      -0.2457
     24  N         80.8520   32.4400  247.0010 N.3   138  ALA138     -0.1231
     25  CA        79.4180   32.6360  246.8330 C.3   138  ALA138      0.1694
     26  C         79.1080   33.5660  245.6660 C.2   138  ALA138      0.2593
     27  O         77.9510   33.7220  245.2690 O.2   138  ALA138     -0.2718
     28  CB        78.8650   33.2420  248.1210 C.3   138  ALA138      0.0304
     29  N         80.1070   34.2650  245.1290 N.am  139  GLY139     -0.1942
     30  CA        79.8740   35.2010  244.0330 C.3   139  GLY139      0.2014
     31  C         79.0260   36.4010  244.4430 C.2   139  GLY139      0.2641
     32  O         78.1570   36.8710  243.6980 O.2   139  GLY139     -0.2714
     33  N         79.2020   36.8360  245.6990 N.am  140  GLN140     -0.1931
     34  CA        78.4610   37.9090  246.3080 C.3   140  GLN140      0.1817
     35  C         79.2980   38.8460  247.1690 C.2   140  GLN140      0.2332
     36  O         80.4530   38.5860  247.5230 O.2   140  GLN140     -0.2860
     37  CB        77.3900   37.3190  247.2620 C.2   140  GLN140      0.0077
     38  CG        76.3910   36.3560  246.6470 C.2   140  GLN140      0.0587
     39  CD        75.5640   35.5360  247.6240 C.2   140  GLN140      0.2841
     40  OE1       74.3840   35.2550  247.3370 O.2   140  GLN140     -0.2667
     41  NE2       76.1490   35.1680  248.7450 N.am  140  GLN140     -0.0837
     42  N         74.2680   39.8050  244.9530 N.3   156  ASP156     -0.1225
     43  CA        74.8560   38.9600  243.9260 C.3   156  ASP156      0.1805
     44  C         75.5900   39.8240  242.8940 C.2   156  ASP156      0.2598
     45  O         75.0200   40.7960  242.3980 O.2   156  ASP156     -0.2718
     46  CB        73.7920   38.1600  243.1750 C.3   156  ASP156      0.1424
     47  CG        73.0910   37.0840  243.9740 C.2   156  ASP156      0.3668
     48  OD1       73.3200   36.8930  245.1900 O.co2 156  ASP156     -0.2456
     49  OD2       72.2560   36.3830  243.3530 O.co2 156  ASP156     -0.2456
     50  N         76.8370   39.4900  242.6050 N.am  157  THR157     -0.1939
     51  CA        77.6130   40.2260  241.5990 C.3   157  THR157      0.2028
     52  C         77.9660   39.2180  240.5110 C.2   157  THR157      0.2643
     53  O         77.6550   39.4380  239.3420 O.2   157  THR157     -0.2714
     54  CB        78.8470   40.9250  242.1670 C.3   157  THR157      0.1808
     55  OG1       79.7140   39.9940  242.8210 O.3   157  THR157     -0.2208
     56  CG2       78.4760   41.9840  243.2210 C.3   157  THR157      0.0379
     57  N         78.5930   38.1080  240.8870 N.am  158  GLY158     -0.1939
     58  CA        78.9190   37.0520  239.9310 C.3   158  GLY158      0.2014
     59  C         80.0220   36.1790  240.5060 C.2   158  GLY158      0.2638
     60  O         80.8000   36.6450  241.3510 O.2   158  GLY158     -0.2714
     61  N         80.1010   34.9220  240.0680 N.am  159  TYR159     -0.1973
     62  CA        81.1810   34.0660  240.5120 C.3   159  TYR159      0.1639
     63  C         82.4970   34.7920  240.1880 C.2   159  TYR159      0.2290
     64  O         82.5260   35.5210  239.2080 O.2   159  TYR159     -0.2864
     65  CB        81.2770   32.7250  239.7670 C.3   159  TYR159      0.0560
     66  CG        80.0600   31.8510  239.9490 C.ar  159  TYR159     -0.0198
     67  CD1       79.6590   31.4030  241.1960 C.ar  159  TYR159     -0.0009
     68  CD2       79.3160   31.4850  238.8330 C.ar  159  TYR159     -0.0009
     69  CE1       78.5410   30.5980  241.3460 C.ar  159  TYR159      0.0417
     70  CE2       78.1960   30.6870  238.9680 C.ar  159  TYR159      0.0417
     71  CZ        77.8220   30.2510  240.2260 C.ar  159  TYR159      0.1957
     72  OH        76.6970   29.4670  240.3360 O.3   159  TYR159     -0.2866
     73  N         84.1840   27.1500  251.7160 N.3   487  LYS487     -0.1245
     74  CA        82.8050   27.4290  251.3510 C.3   487  LYS487      0.1561
     75  C         81.7380   26.7010  252.1480 C.2   487  LYS487      0.2260
     76  O         80.6910   27.2730  252.4620 O.2   487  LYS487     -0.2867
     77  CB        82.6330   27.0740  249.8570 C.3   487  LYS487      0.0271
     78  CG        81.2400   27.3440  249.3200 C.3   487  LYS487      0.0035
     79  CD        81.0940   26.7520  247.9150 C.3   487  LYS487      0.0206
     80  CE        79.7680   27.1980  247.3110 C.3   487  LYS487      0.1093
     81  NZ        79.2170   26.1350  246.4030 N.3   487  LYS487     -0.1314
@<TRIPOS>BOND
     1    18    17    2
     2    17    16    1
     3    16    15    1
     4    16    19    1
     5    19    20    1
     6    20    21    1
     7    22    21   ar
     8    21    23   ar
     9    11    12    2
    10    11    10    1
    11    14    13    1
    12    68    70   ar
    13    68    66   ar
    14    70    71   ar
    15     3     4    2
    16     3     2    1
    17     9    10    1
    18    64    63    2
    19    53    52    2
    20    10    13    1
    21    65    66    1
    22    65    62    1
    23    58    59    1
    24    58    57    1
    25    66    67   ar
    26    61    59   am
    27    61    62    1
    28    63    62    1
    29     2     1    1
    30     2     5    1
    31    71    72    1
    32    71    69   ar
    33    59    60    2
    34    52    57   am
    35    52    51    1
    36    67    69   ar
    37     5     6    1
    38    51    54    1
    39    51    50    1
    40     6     8   am
    41     6     7    2
    42    54    55    1
    43    54    56    1
    44    45    44    2
    45    50    44   am
    46    44    43    1
    47    46    43    1
    48    46    47    1
    49    49    47   ar
    50    32    31    2
    51    43    42    1
    52    47    48   ar
    53    30    31    1
    54    30    29    1
    55    31    33   am
    56    29    26   am
    57    27    26    2
    58    26    25    1
    59    33    34    1
    60    34    35    1
    61    34    37    1
    62    81    80    1
    63    38    37    2
    64    38    39    1
    65    25    24    1
    66    25    28    1
    67    35    36    2
    68    80    79    1
    69    40    39    2
    70    39    41   am
    71    79    78    1
    72    78    77    1
    73    77    74    1
    74    74    73    1
    75    74    75    1
    76    75    76    2
