@<TRIPOS>MOLECULE
tmp/1ha2A05.pdb
 151 138 0 0 0
SMALL
GASTEIGER

@<TRIPOS>ATOM
      1  N         26.2140   -3.0080    7.8440 N.3   204  PHE204     -0.1241
      2  CA        25.7390   -2.6300    6.5210 C.3   204  PHE204      0.1605
      3  C         26.7610   -2.4310    5.4250 C.2   204  PHE204      0.2264
      4  O         26.4090   -2.4150    4.2490 O.2   204  PHE204     -0.2867
      5  CB        24.8710   -1.3810    6.6310 C.3   204  PHE204      0.0534
      6  CG        23.7810   -1.4990    7.6540 C.ar  204  PHE204     -0.0203
      7  CD1       23.7940   -0.7020    8.7980 C.ar  204  PHE204     -0.0042
      8  CD2       22.7460   -2.4180    7.4850 C.ar  204  PHE204     -0.0042
      9  CE1       22.7880   -0.8210    9.7650 C.ar  204  PHE204     -0.0003
     10  CE2       21.7330   -2.5470    8.4440 C.ar  204  PHE204     -0.0003
     11  CZ        21.7540   -1.7470    9.5870 C.ar  204  PHE204     -0.0000
     12  N         28.9400    0.7670    1.2010 N.3   207  ARG207     -0.1231
     13  CA        28.0070    1.4550    0.3260 C.3   207  ARG207      0.1694
     14  C         27.0030    2.2850    1.1060 C.2   207  ARG207      0.2591
     15  O         26.7890    3.4540    0.7890 O.2   207  ARG207     -0.2718
     16  CB        27.2730    0.4580   -0.5710 C.3   207  ARG207      0.0321
     17  CG        26.3730    1.1280   -1.5900 C.3   207  ARG207      0.0489
     18  CD        25.8480    0.1420   -2.6160 C.3   207  ARG207      0.2205
     19  NE        25.1180    0.8070   -3.6980 N.pl3 207  ARG207     -0.0865
     20  CZ        23.7920    0.9400   -3.7600 C.cat 207  ARG207      0.5346
     21  NH1       23.0100    0.4530   -2.7970 N.pl3 207  ARG207      0.1354
     22  NH2       23.2480    1.5530   -4.8050 N.pl3 207  ARG207      0.1354
     23  N         26.3960    1.6800    2.1220 N.am  208  ALA208     -0.1980
     24  CA        25.4080    2.3710    2.9430 C.3   208  ALA208      0.1597
     25  C         26.0300    3.5610    3.6650 C.2   208  ALA208      0.2287
     26  O         25.3800    4.5730    3.9070 O.2   208  ALA208     -0.2864
     27  CB        24.8080    1.4060    3.9640 C.3   208  ALA208      0.0319
     28  N         28.6850    5.4540    2.6090 N.3   210  LYS210     -0.1231
     29  CA        28.9110    6.5130    1.6440 C.3   210  LYS210      0.1693
     30  C         27.6080    7.2210    1.2870 C.2   210  LYS210      0.2591
     31  O         27.5810    8.4360    1.0900 O.2   210  LYS210     -0.2718
     32  CB        29.5490    5.9390    0.3870 C.3   210  LYS210      0.0285
     33  CG        30.9630    5.4400    0.6000 C.3   210  LYS210      0.0035
     34  CD        31.5810    4.9510   -0.7100 C.3   210  LYS210      0.0206
     35  CE        33.0300    4.5270   -0.5190 C.3   210  LYS210      0.1093
     36  NZ        33.7520    4.3830   -1.8210 N.3   210  LYS210     -0.1314
     37  N         26.5310    6.4470    1.2070 N.am  211  ALA211     -0.1980
     38  CA        25.2250    6.9890    0.8790 C.3   211  ALA211      0.1597
     39  C         24.8430    7.9890    1.9680 C.2   211  ALA211      0.2287
     40  O         24.4430    9.1230    1.6860 O.2   211  ALA211     -0.2864
     41  CB        24.1950    5.8600    0.7980 C.3   211  ALA211      0.0319
     42  N         27.1430   11.0680    1.6340 N.3   214  VAL214     -0.1245
     43  CA        26.8350   11.9510    0.5200 C.3   214  VAL214      0.1561
     44  C         25.6670   12.8420    0.8990 C.2   214  VAL214      0.2260
     45  O         25.7190   14.0590    0.7520 O.2   214  VAL214     -0.2867
     46  CB        26.4160   11.1750   -0.7400 C.3   214  VAL214      0.0252
     47  CG1       25.8360   12.1520   -1.7790 C.3   214  VAL214      0.0019
     48  CG2       27.6010   10.4320   -1.3160 C.3   214  VAL214      0.0019
     49  N         29.6040   18.0520   -7.0900 N.3   226  PHE226     -0.1241
     50  CA        29.4580   16.6500   -6.7190 C.3   226  PHE226      0.1605
     51  C         30.7650   15.8770   -6.6970 C.2   226  PHE226      0.2264
     52  O         30.8990   14.8820   -5.9830 O.2   226  PHE226     -0.2867
     53  CB        28.4910   15.9480   -7.6630 C.3   226  PHE226      0.0534
     54  CG        28.3690   14.4790   -7.4030 C.ar  226  PHE226     -0.0203
     55  CD1       27.6720   14.0140   -6.2940 C.ar  226  PHE226     -0.0042
     56  CD2       29.0000   13.5580   -8.2400 C.ar  226  PHE226     -0.0042
     57  CE1       27.6080   12.6500   -6.0190 C.ar  226  PHE226     -0.0003
     58  CE2       28.9410   12.1950   -7.9690 C.ar  226  PHE226     -0.0003
     59  CZ        28.2460   11.7390   -6.8590 C.ar  226  PHE226     -0.0000
     60  N         32.1250   13.8410   -3.4790 N.3   230  SER230     -0.1217
     61  CA        32.5430   12.4490   -3.6350 C.3   230  SER230      0.1889
     62  C         33.9350   12.2800   -3.0560 C.2   230  SER230      0.2288
     63  O         34.2210   11.3040   -2.3710 O.2   230  SER230     -0.2866
     64  CB        32.5660   12.0430   -5.1120 C.3   230  SER230      0.2089
     65  OG        31.2570   12.0220   -5.6430 O.3   230  SER230     -0.2183
     66  N         33.6320   12.1410    0.6520 N.3   233  VAL233     -0.1245
     67  CA        32.9670   10.9450    1.1470 C.3   233  VAL233      0.1561
     68  C         33.9540    9.8070    1.1390 C.2   233  VAL233      0.2260
     69  O         33.9330    8.9560    2.0140 O.2   233  VAL233     -0.2867
     70  CB        31.7330   10.5800    0.2890 C.3   233  VAL233      0.0252
     71  CG1       31.1160    9.2680    0.7660 C.3   233  VAL233      0.0019
     72  CG2       30.7020   11.7000    0.3830 C.3   233  VAL233      0.0019
     73  N         25.9480    3.5510   -9.1180 N.3   322  ASP322     -0.1225
     74  CA        26.1760    4.2560   -7.8760 C.3   322  ASP322      0.1805
     75  C         26.4480    5.7160   -8.0480 C.2   322  ASP322      0.2597
     76  O         25.9580    6.5170   -7.2690 O.2   322  ASP322     -0.2718
     77  CB        27.3000    3.6090   -7.0900 C.3   322  ASP322      0.1424
     78  CG        26.8850    2.2960   -6.5030 C.2   322  ASP322      0.3668
     79  OD1       25.6630    2.0980   -6.3480 O.co2 322  ASP322     -0.2456
     80  OD2       27.7650    1.4710   -6.1900 O.co2 322  ASP322     -0.2456
     81  N         27.2180    6.0780   -9.0640 N.am  323  VAL323     -0.1980
     82  CA        27.5120    7.4880   -9.2810 C.3   323  VAL323      0.1595
     83  C         26.2210    8.2420   -9.5730 C.2   323  VAL323      0.2287
     84  O         25.9320    9.2780   -8.9760 O.2   323  VAL323     -0.2864
     85  CB        28.4910    7.6910  -10.4500 C.3   323  VAL323      0.0276
     86  CG1       28.8010    9.1850  -10.6190 C.3   323  VAL323      0.0022
     87  CG2       29.7800    6.9210  -10.1820 C.3   323  VAL323      0.0022
     88  N         23.1640    7.3560   -8.8440 N.3   325  LEU325     -0.1231
     89  CA        22.3560    7.4230   -7.6310 C.3   325  LEU325      0.1693
     90  C         22.9560    8.4260   -6.6430 C.2   325  LEU325      0.2592
     91  O         22.2330    9.1110   -5.8990 O.2   325  LEU325     -0.2718
     92  CB        22.2610    6.0500   -6.9810 C.3   325  LEU325      0.0284
     93  CG        21.4110    5.0370   -7.7560 C.3   325  LEU325      0.0019
     94  CD1       21.3800    3.7300   -7.0300 C.3   325  LEU325      0.0001
     95  CD2       19.9970    5.5750   -7.9180 C.3   325  LEU325      0.0001
     96  N         24.2820    8.5170   -6.6470 N.am  326  GLY326     -0.1957
     97  CA        24.9470    9.4360   -5.7600 C.3   326  GLY326      0.1869
     98  C         24.5870   10.8490   -6.1390 C.2   326  GLY326      0.2309
     99  O         24.2830   11.6690   -5.2790 O.2   326  GLY326     -0.2863
    100  N         21.2740   11.7640   -4.9510 N.3   329  LEU329     -0.1245
    101  CA        21.2950   12.0550   -3.5230 C.3   329  LEU329      0.1561
    102  C         21.8510   13.4460   -3.2800 C.2   329  LEU329      0.2260
    103  O         21.3120   14.2290   -2.4910 O.2   329  LEU329     -0.2867
    104  CB        22.1900   11.0590   -2.7890 C.3   329  LEU329      0.0270
    105  CG        21.5320    9.9510   -1.9880 C.3   329  LEU329      0.0019
    106  CD1       22.6320    9.0980   -1.3990 C.3   329  LEU329      0.0001
    107  CD2       20.6270   10.5380   -0.9080 C.3   329  LEU329      0.0001
    108  N         17.7090    8.8870    2.2130 N.3   345  LEU345     -0.1245
    109  CA        18.1660    7.5680    1.8170 C.3   345  LEU345      0.1561
    110  C         16.9870    6.7640    1.3060 C.2   345  LEU345      0.2260
    111  O         17.0960    6.0290    0.3230 O.2   345  LEU345     -0.2867
    112  CB        18.8340    6.8490    2.9900 C.3   345  LEU345      0.0270
    113  CG        20.2410    7.3550    3.3210 C.3   345  LEU345      0.0019
    114  CD1       20.8230    6.5290    4.4380 C.3   345  LEU345      0.0001
    115  CD2       21.1190    7.2760    2.0880 C.3   345  LEU345      0.0001
    116  N         16.1540    7.9480   -2.2830 N.3   348  ALA348     -0.1231
    117  CA        17.1380    7.3770   -3.1970 C.3   348  ALA348      0.1694
    118  C         16.9120    5.8670   -3.3600 C.2   348  ALA348      0.2591
    119  O         17.0730    5.3280   -4.4500 O.2   348  ALA348     -0.2718
    120  CB        18.5570    7.6550   -2.6930 C.3   348  ALA348      0.0304
    121  N         16.5290    5.1920   -2.2830 N.am  349  LYS349     -0.1980
    122  CA        16.2820    3.7550   -2.3440 C.3   349  LYS349      0.1596
    123  C         15.1100    3.5140   -3.2940 C.2   349  LYS349      0.2287
    124  O         15.2100    2.7190   -4.2380 O.2   349  LYS349     -0.2864
    125  CB        15.9500    3.2140   -0.9480 C.3   349  LYS349      0.0298
    126  CG        15.7690    1.7100   -0.8900 C.3   349  LYS349      0.0038
    127  CD        17.0790    0.9850   -1.0500 C.3   349  LYS349      0.0206
    128  CE        16.8790   -0.3730   -1.7200 C.3   349  LYS349      0.1093
    129  NZ        16.8320   -0.2830   -3.2290 N.3   349  LYS349     -0.1314
    130  N         16.0310    4.0410   -6.8300 N.3   352  GLU352     -0.1245
    131  CA        16.8370    2.9310   -7.3260 C.3   352  GLU352      0.1567
    132  C         15.9550    1.7510   -7.7380 C.2   352  GLU352      0.2260
    133  O         16.1190    1.1730   -8.8030 O.2   352  GLU352     -0.2867
    134  CB        17.8340    2.4910   -6.2490 C.3   352  GLU352      0.0388
    135  CG        18.4360    1.1250   -6.5030 C.3   352  GLU352      0.1160
    136  CD        19.5200    0.7740   -5.5260 C.2   352  GLU352      0.3649
    137  OE1       19.2790    0.8910   -4.3060 O.co2 352  GLU352     -0.2457
    138  OE2       20.6110    0.3710   -5.9820 O.co2 352  GLU352     -0.2457
    139  N         16.9490   -2.8500    8.2300 N.3   478  SER478     -0.1217
    140  CA        17.9530   -1.9870    7.6140 C.3   478  SER478      0.1889
    141  C         17.8760   -0.6250    8.3000 C.2   478  SER478      0.2288
    142  O         16.8000   -0.1840    8.7060 O.2   478  SER478     -0.2866
    143  CB        17.6870   -1.8210    6.1150 C.3   478  SER478      0.2089
    144  OG        16.5530   -1.0010    5.8960 O.3   478  SER478     -0.2183
    145  N         17.6430    2.1900    7.3130 N.3   480  VAL480     -0.1245
    146  CA        16.6360    3.0410    6.7010 C.3   480  VAL480      0.1561
    147  C         15.1950    2.6950    7.1200 C.2   480  VAL480      0.2260
    148  O         14.2910    3.5220    6.9850 O.2   480  VAL480     -0.2867
    149  CB        16.8050    3.0080    5.1430 C.3   480  VAL480      0.0252
    150  CG1       15.5210    2.5920    4.4560 C.3   480  VAL480      0.0019
    151  CG2       17.2650    4.3610    4.6480 C.3   480  VAL480      0.0019
@<TRIPOS>BOND
     1    86    85    1
     2    85    87    1
     3    85    82    1
     4    83    82    1
     5    83    84    2
     6    82    81    1
     7    73    74    1
     8    81    75   am
     9    88    89    1
    10   133   132    2
    11    56    58   ar
    12    56    54   ar
    13    75    74    1
    14    75    76    2
    15    58    59   ar
    16    95    93    1
    17    74    77    1
    18    93    94    1
    19    93    92    1
    20   132   131    1
    21    53    54    1
    22    53    50    1
    23    89    92    1
    24    89    90    1
    25    54    55   ar
    26   131   130    1
    27   131   134    1
    28    77    78    1
    29    49    50    1
    30    59    57   ar
    31    50    51    1
    32    51    52    2
    33    96    90   am
    34    96    97    1
    35    90    91    2
    36   135   134    1
    37   135   136    1
    38    78    79   ar
    39    78    80   ar
    40    55    57   ar
    41    98    97    1
    42    98    99    2
    43   138   136   ar
    44    65    64    1
    45   136   137   ar
    46    64    61    1
    47   100   101    1
    48    22    20    1
    49   119   118    2
    50   124   123    2
    51    20    19    2
    52    20    21    1
    53    19    18    1
    54    61    60    1
    55    61    62    1
    56   101   102    1
    57   101   104    1
    58   118   117    1
    59   118   121   am
    60   123   122    1
    61   102   103    2
    62   129   128    1
    63   117   120    1
    64   117   116    1
    65    62    63    2
    66   104   105    1
    67    18    17    1
    68   122   121    1
    69   122   125    1
    70   105   106    1
    71   105   107    1
    72    36    35    1
    73    47    46    1
    74   128   127    1
    75    17    16    1
    76    48    46    1
    77   127   126    1
    78   125   126    1
    79    46    43    1
    80    34    35    1
    81    34    33    1
    82    16    13    1
    83    70    72    1
    84    70    71    1
    85    70    67    1
    86   111   110    2
    87    13    14    1
    88    13    12    1
    89    32    33    1
    90    32    29    1
    91    43    44    1
    92    43    42    1
    93    66    67    1
    94    45    44    2
    95    15    14    2
    96    41    38    1
    97    38    37    1
    98    38    39    1
    99    31    30    2
   100    14    23   am
   101    68    67    1
   102    68    69    2
   103    37    30   am
   104    30    29    1
   105   110   109    1
   106    29    28    1
   107    40    39    2
   108   109   108    1
   109   109   112    1
   110   115   113    1
   111    23    24    1
   112    24    25    1
   113    24    27    1
   114   112   113    1
   115   113   114    1
   116    25    26    2
   117     4     3    2
   118   150   149    1
   119   151   149    1
   120   149   146    1
   121     3     2    1
   122   144   143    1
   123   143   140    1
   124     2     5    1
   125     2     1    1
   126     5     6    1
   127   146   147    1
   128   146   145    1
   129   148   147    2
   130     8     6   ar
   131     8    10   ar
   132   140   139    1
   133   140   141    1
   134     6     7   ar
   135   141   142    2
   136    10    11   ar
   137     7     9   ar
   138    11     9   ar
