@<TRIPOS>MOLECULE
tmp/1ha2A02.pdb
 183 171 0 0 0
SMALL
GASTEIGER

@<TRIPOS>ATOM
      1  N         15.6360   14.5460    7.0580 N.3   340  SER340     -0.1217
      2  CA        16.5510   13.7530    7.8700 C.3   340  SER340      0.1889
      3  C         17.3680   12.9770    6.8210 C.2   340  SER340      0.2288
      4  O         16.8920   12.7760    5.7020 O.2   340  SER340     -0.2866
      5  CB        15.7770   12.7900    8.7660 C.3   340  SER340      0.2089
      6  OG        15.1920   11.7590    7.9960 O.3   340  SER340     -0.2183
      7  N         18.1280    9.8050    6.6980 N.3   342  VAL342     -0.1231
      8  CA        17.4710    8.5440    6.3720 C.3   342  VAL342      0.1692
      9  C         16.3040    8.7030    5.3910 C.2   342  VAL342      0.2591
     10  O         16.0620    7.8190    4.5670 O.2   342  VAL342     -0.2718
     11  CB        16.9800    7.8190    7.6500 C.3   342  VAL342      0.0266
     12  CG1       18.0800    6.9470    8.1860 C.3   342  VAL342      0.0020
     13  CG2       16.5760    8.8330    8.7120 C.3   342  VAL342      0.0020
     14  N         15.5890    9.8240    5.4770 N.am  343  LEU343     -0.1980
     15  CA        14.4860   10.0790    4.5630 C.3   343  LEU343      0.1596
     16  C         15.0840   10.2160    3.1650 C.2   343  LEU343      0.2287
     17  O         14.5420    9.6780    2.1860 O.2   343  LEU343     -0.2864
     18  CB        13.7350   11.3660    4.9480 C.3   343  LEU343      0.0297
     19  CG        12.6480   11.8940    3.9860 C.3   343  LEU343      0.0022
     20  CD1       11.6010   10.8240    3.7090 C.3   343  LEU343      0.0001
     21  CD2       11.9870   13.1180    4.5850 C.3   343  LEU343      0.0001
     22  N         15.8560    6.9150    1.9780 N.3   346  ARG346     -0.1245
     23  CA        14.6360    6.2310    1.5730 C.3   346  ARG346      0.1563
     24  C         14.2140    6.6530    0.1730 C.2   346  ARG346      0.2260
     25  O         13.7960    5.8110   -0.6150 O.2   346  ARG346     -0.2867
     26  CB        13.5000    6.5460    2.5260 C.3   346  ARG346      0.0307
     27  CG        13.5590    5.8110    3.8130 C.3   346  ARG346      0.0489
     28  CD        12.5270    6.3780    4.7780 C.3   346  ARG346      0.2205
     29  NE        12.9490    6.1340    6.1460 N.pl3 346  ARG346     -0.0865
     30  CZ        12.7780    6.9890    7.1430 C.cat 346  ARG346      0.5346
     31  NH1       12.1770    8.1520    6.9300 N.pl3 346  ARG346      0.1354
     32  NH2       13.2440    6.6890    8.3460 N.pl3 346  ARG346      0.1354
     33  N          7.2820   11.2030    8.1530 N.3   382  PRO382     -0.2116
     34  CA         8.0800   11.7780    9.2370 C.3   382  PRO382      0.1372
     35  C          7.6550   13.1950    9.6430 C.2   382  PRO382      0.2244
     36  O          7.6990   13.5480   10.8150 O.2   382  PRO382     -0.2868
     37  CB         9.5080   11.7070    8.6890 C.3   382  PRO382      0.0268
     38  CG         9.3140   11.7280    7.2130 C.3   382  PRO382      0.0207
     39  CD         8.1380   10.8320    7.0170 C.3   382  PRO382      0.0892
     40  N          4.5540   12.9970   11.9630 N.3   385  LEU385     -0.1231
     41  CA         4.9090   12.5500   13.3060 C.3   385  LEU385      0.1693
     42  C          5.5060   13.6920   14.1280 C.2   385  LEU385      0.2591
     43  O          5.2540   13.7840   15.3180 O.2   385  LEU385     -0.2718
     44  CB         5.9030   11.3930   13.2450 C.3   385  LEU385      0.0284
     45  CG         5.2930   10.0790   12.7720 C.3   385  LEU385      0.0019
     46  CD1        6.3510    8.9710   12.7580 C.3   385  LEU385      0.0001
     47  CD2        4.1410    9.7220   13.7020 C.3   385  LEU385      0.0001
     48  N          6.2920   14.5530   13.4840 N.am  386  ILE386     -0.1980
     49  CA         6.9240   15.6920   14.1470 C.3   386  ILE386      0.1595
     50  C          5.9080   16.7310   14.6220 C.2   386  ILE386      0.2287
     51  O          5.9430   17.1600   15.7810 O.2   386  ILE386     -0.2864
     52  CB         7.9310   16.4040   13.2050 C.3   386  ILE386      0.0276
     53  CG1        9.1120   15.4850   12.9020 C.3   386  ILE386      0.0022
     54  CG2        8.4350   17.6950   13.8470 C.3   386  ILE386      0.0022
     55  CD1       10.0760   15.3690   14.0450 C.3   386  ILE386      0.0001
     56  N          3.5390   15.1470   17.2970 N.3   389  ASN389     -0.1225
     57  CA         4.1900   14.9570   18.5820 C.3   389  ASN389      0.1785
     58  C          4.6480   16.2580   19.2300 C.2   389  ASN389      0.2597
     59  O          4.6430   16.3750   20.4590 O.2   389  ASN389     -0.2718
     60  CB         5.3560   13.9690   18.4490 C.3   389  ASN389      0.1169
     61  CG         4.9030   12.5230   18.5630 C.2   389  ASN389      0.2627
     62  OD1        4.4770   12.0710   19.6290 O.2   389  ASN389     -0.2716
     63  ND2        4.9790   11.7960   17.4640 N.am  389  ASN389     -0.0877
     64  N          5.0350   17.2410   18.4240 N.am  390  CYS390     -0.1970
     65  CA         5.4690   18.5020   19.0070 C.3   390  CYS390      0.1712
     66  C          4.2860   19.2900   19.5380 C.2   390  CYS390      0.2296
     67  O          4.4250   20.0500   20.4960 O.2   390  CYS390     -0.2864
     68  CB         6.2710   19.3300   18.0040 C.3   390  CYS390      0.0983
     69  SG         8.0230   18.8200   17.9120 S.3   390  CYS390     -0.0798
     70  N          4.1530   14.7710   28.9640 N.3   401  PHE401     -0.1241
     71  CA         4.3590   14.2680   27.6220 C.3   401  PHE401      0.1605
     72  C          5.0370   12.9070   27.7540 C.2   401  PHE401      0.2264
     73  O          4.7350   11.9670   27.0140 O.2   401  PHE401     -0.2867
     74  CB         5.2400   15.2400   26.8310 C.3   401  PHE401      0.0534
     75  CG         5.5750   14.7670   25.4520 C.ar  401  PHE401     -0.0203
     76  CD1        4.5660   14.4620   24.5430 C.ar  401  PHE401     -0.0042
     77  CD2        6.8980   14.6000   25.0660 C.ar  401  PHE401     -0.0042
     78  CE1        4.8770   13.9940   23.2690 C.ar  401  PHE401     -0.0003
     79  CE2        7.2190   14.1300   23.7910 C.ar  401  PHE401     -0.0003
     80  CZ         6.2140   13.8270   22.8970 C.ar  401  PHE401     -0.0000
     81  N          3.8100    9.0910   26.3540 N.3   405  LEU405     -0.1245
     82  CA         4.6290    8.1370   25.6030 C.3   405  LEU405      0.1561
     83  C          4.6570    6.8330   26.3750 C.2   405  LEU405      0.2260
     84  O          4.6020    5.7520   25.8010 O.2   405  LEU405     -0.2867
     85  CB         6.0700    8.6300   25.4560 C.3   405  LEU405      0.0270
     86  CG         6.3180    9.9060   24.6580 C.3   405  LEU405      0.0019
     87  CD1        7.8210   10.1140   24.4590 C.3   405  LEU405      0.0001
     88  CD2        5.6170    9.7880   23.3170 C.3   405  LEU405      0.0001
     89  N          1.5640    4.9710   25.7180 N.3   408  ARG408     -0.1231
     90  CA         1.6380    4.5800   24.3200 C.3   408  ARG408      0.1694
     91  C          2.5560    3.4000   24.0140 C.2   408  ARG408      0.2592
     92  O          2.1890    2.5220   23.2450 O.2   408  ARG408     -0.2718
     93  CB         2.0720    5.7810   23.4860 C.3   408  ARG408      0.0321
     94  CG         1.9090    5.5870   21.9910 C.3   408  ARG408      0.0489
     95  CD         1.7590    6.9300   21.2940 C.3   408  ARG408      0.2205
     96  NE         3.0490    7.5180   20.9770 N.pl3 408  ARG408     -0.0865
     97  CZ         3.2440    8.8140   20.7660 C.cat 408  ARG408      0.5346
     98  NH1        2.2230    9.6590   20.8490 N.pl3 408  ARG408      0.1354
     99  NH2        4.4570    9.2630   20.4510 N.pl3 408  ARG408      0.1354
    100  N          3.7400    3.3670   24.6100 N.am  409  TYR409     -0.1976
    101  CA         4.6660    2.2770   24.3350 C.3   409  TYR409      0.1639
    102  C          4.4870    1.0460   25.2120 C.2   409  TYR409      0.2290
    103  O          4.8630   -0.0570   24.8300 O.2   409  TYR409     -0.2864
    104  CB         6.1090    2.7890   24.4080 C.3   409  TYR409      0.0560
    105  CG         6.3510    3.8830   23.4040 C.ar  409  TYR409     -0.0198
    106  CD1        6.0870    3.6670   22.0460 C.ar  409  TYR409     -0.0009
    107  CD2        6.7790    5.1520   23.8060 C.ar  409  TYR409     -0.0009
    108  CE1        6.2350    4.6880   21.1090 C.ar  409  TYR409      0.0417
    109  CE2        6.9350    6.1810   22.8820 C.ar  409  TYR409      0.0417
    110  CZ         6.6590    5.9400   21.5340 C.ar  409  TYR409      0.1957
    111  OH         6.8060    6.9440   20.6060 O.3   409  TYR409     -0.2866
    112  N         12.9980    9.7380   25.2330 N.3   428  LEU428     -0.1245
    113  CA        12.1780   10.0840   24.0830 C.3   428  LEU428      0.1561
    114  C         11.5380   11.4410   24.3430 C.2   428  LEU428      0.2260
    115  O         11.3990   12.2610   23.4400 O.2   428  LEU428     -0.2867
    116  CB        11.0930    9.0320   23.8920 C.3   428  LEU428      0.0270
    117  CG        11.0620    8.3040   22.5530 C.3   428  LEU428      0.0019
    118  CD1       12.4520    8.2360   21.9510 C.3   428  LEU428      0.0001
    119  CD2       10.4910    6.9180   22.7780 C.3   428  LEU428      0.0001
    120  N         13.9570   14.2920   23.7570 N.3   431  VAL431     -0.1231
    121  CA        14.1210   14.5590   22.3320 C.3   431  VAL431      0.1692
    122  C         13.0320   15.5370   21.9120 C.2   431  VAL431      0.2592
    123  O         13.2450   16.3860   21.0510 O.2   431  VAL431     -0.2718
    124  CB        13.9950   13.2690   21.4850 C.3   431  VAL431      0.0266
    125  CG1       14.1780   13.5910   19.9950 C.3   431  VAL431      0.0020
    126  CG2       15.0180   12.2490   21.9390 C.3   431  VAL431      0.0020
    127  N         11.8670   15.4140   22.5410 N.am  432  GLY432     -0.1957
    128  CA        10.7570   16.2940   22.2310 C.3   432  GLY432      0.1869
    129  C         10.9780   17.7190   22.7070 C.2   432  GLY432      0.2309
    130  O         10.7330   18.6750   21.9660 O.2   432  GLY432     -0.2863
    131  N         14.0370   19.1970   20.4350 N.3   435  CYS435     -0.1221
    132  CA        13.7910   19.4730   19.0350 C.3   435  CYS435      0.1808
    133  C         12.5790   20.3090   18.7140 C.2   435  CYS435      0.2601
    134  O         12.5810   21.0220   17.7150 O.2   435  CYS435     -0.2717
    135  CB        13.7040   18.1650   18.2530 C.3   435  CYS435      0.0970
    136  SG        15.2390   17.2000   18.2260 S.3   435  CYS435     -0.0800
    137  N         11.5380   20.2220   19.5320 N.am  436  CYS436     -0.1970
    138  CA        10.3340   20.9970   19.2610 C.3   436  CYS436      0.1712
    139  C         10.5590   22.4920   19.4410 C.2   436  CYS436      0.2296
    140  O          9.7490   23.3030   19.0190 O.2   436  CYS436     -0.2864
    141  CB         9.1870   20.5360   20.1560 C.3   436  CYS436      0.0983
    142  SG         8.6300   18.8290   19.8480 S.3   436  CYS436     -0.0798
    143  N         13.2950   17.8500   11.8470 N.3   444  MET444     -0.1245
    144  CA        13.5880   16.4830   11.4450 C.3   444  MET444      0.1570
    145  C         15.0450   16.0750   11.6250 C.2   444  MET444      0.2261
    146  O         15.3320   14.9920   12.1310 O.2   444  MET444     -0.2867
    147  CB        13.1740   16.2480   10.0050 C.3   444  MET444      0.0387
    148  CG        12.6450   14.8540    9.7960 C.3   444  MET444      0.0595
    149  SD        12.4750   14.4510    8.0760 S.3   444  MET444     -0.1393
    150  CE        11.1790   15.6170    7.6290 C.3   444  MET444      0.0692
    151  N         15.4600   15.5480   15.3780 N.3   447  ALA447     -0.1231
    152  CA        14.8670   14.3040   15.8600 C.3   447  ALA447      0.1694
    153  C         15.7160   13.1000   15.4360 C.2   447  ALA447      0.2591
    154  O         16.0730   12.2430   16.2490 O.2   447  ALA447     -0.2718
    155  CB        13.4500   14.1560   15.3160 C.3   447  ALA447      0.0304
    156  N         16.0520   13.0470   14.1570 N.am  448  GLU448     -0.1979
    157  CA        16.8380   11.9520   13.6500 C.3   448  GLU448      0.1602
    158  C         18.0870   11.7340   14.4780 C.2   448  GLU448      0.2287
    159  O         18.3660   10.6280   14.9320 O.2   448  GLU448     -0.2864
    160  CB        17.2330   12.2130   12.2000 C.3   448  GLU448      0.0415
    161  CG        18.2180   11.2090   11.6580 C.3   448  GLU448      0.1163
    162  CD        18.6570   11.5290   10.2610 C.2   448  GLU448      0.3649
    163  OE1       18.8630   12.7240    9.9670 O.co2 448  GLU448     -0.2457
    164  OE2       18.8130   10.5920    9.4510 O.co2 448  GLU448     -0.2457
    165  N         17.1680   10.6500   18.1050 N.3   451  LEU451     -0.1245
    166  CA        16.4490    9.3920   18.0360 C.3   451  LEU451      0.1561
    167  C         17.3490    8.2240   17.6790 C.2   451  LEU451      0.2260
    168  O         17.1270    7.1050   18.1280 O.2   451  LEU451     -0.2867
    169  CB        15.3170    9.5180   17.0240 C.3   451  LEU451      0.0270
    170  CG        13.9580    8.9830   17.4390 C.3   451  LEU451      0.0019
    171  CD1       13.7080    9.2080   18.9340 C.3   451  LEU451      0.0001
    172  CD2       12.9120    9.6900   16.6060 C.3   451  LEU451      0.0001
    173  N         13.4490    3.2310   12.2900 N.3   483  ARG483     -0.1245
    174  CA        12.4390    4.0520   12.9370 C.3   483  ARG483      0.1563
    175  C         11.0260    3.8360   12.3530 C.2   483  ARG483      0.2260
    176  O         10.0440    3.7870   13.0970 O.2   483  ARG483     -0.2867
    177  CB        12.8760    5.5250   12.8670 C.3   483  ARG483      0.0307
    178  CG        12.1420    6.4790   13.7860 C.3   483  ARG483      0.0489
    179  CD        10.7700    6.7970   13.2470 C.3   483  ARG483      0.2205
    180  NE        10.8510    7.3640   11.9050 N.pl3 483  ARG483     -0.0865
    181  CZ         9.8510    7.3410   11.0330 C.cat 483  ARG483      0.5346
    182  NH1        8.7000    6.7770   11.3670 N.pl3 483  ARG483      0.1354
    183  NH2       10.0050    7.8760    9.8310 N.pl3 483  ARG483      0.1354
@<TRIPOS>BOND
     1    25    24    2
     2    24    23    1
     3    23    22    1
     4    23    26    1
     5    17    16    2
     6    26    27    1
     7    16    15    1
     8    20    19    1
     9    27    28    1
    10    19    21    1
    11    19    18    1
    12    15    18    1
    13    15    14    1
    14    10     9    2
    15    28    29    1
    16     9    14   am
    17     9     8    1
    18     4     3    2
    19    29    30    2
    20     8     7    1
    21     8    11    1
    22     3     2    1
    23    31    30    1
    24    39    38    1
    25    39    33    1
    26     1     2    1
    27    30    32    1
    28    38    37    1
    29   150   149    1
    30    11    12    1
    31    11    13    1
    32     2     5    1
    33     6     5    1
    34   149   148    1
    35    33    34    1
    36    37    34    1
    37    34    35    1
    38   164   162   ar
    39    35    36    2
    40   148   147    1
    41   183   181    1
    42   163   162   ar
    43   147   144    1
    44   162   161    1
    45   181   182    1
    46   181   180    2
    47   144   145    1
    48   144   143    1
    49   145   146    2
    50   161   160    1
    51   180   179    1
    52    40    41    1
    53   160   157    1
    54   173   174    1
    55   175   174    1
    56   175   176    2
    57    46    45    1
    58    45    44    1
    59    45    47    1
    60   177   174    1
    61   177   178    1
    62    53    52    1
    63    53    55    1
    64    52    54    1
    65    52    49    1
    66    44    41    1
    67   179   178    1
    68    41    42    1
    69    48    42   am
    70    48    49    1
    71   157   156    1
    72   157   158    1
    73    42    43    2
    74    49    50    1
    75   156   153   am
    76   158   159    2
    77    50    51    2
    78   155   152    1
    79   151   152    1
    80   153   152    1
    81   153   154    2
    82   172   170    1
    83   169   170    1
    84   169   166    1
    85    56    57    1
    86   170   171    1
    87    63    61   am
    88   167   166    1
    89   167   168    2
    90   134   133    2
    91    69    68    1
    92    69   142    1
    93    68    65    1
    94   166   165    1
    95   136   135    1
    96   135   132    1
    97    64    65    1
    98    64    58   am
    99    60    61    1
   100    60    57    1
   101    61    62    2
   102    57    58    1
   103   133   132    1
   104   133   137   am
   105    65    66    1
   106   140   139    2
   107   132   131    1
   108    58    59    2
   109   138   139    1
   110   138   137    1
   111   138   141    1
   112    66    67    2
   113   142   141    1
   114   125   124    1
   115    99    97    1
   116   111   110    1
   117    97    98    1
   118    97    96    2
   119    96    95    1
   120   123   122    2
   121   108   110   ar
   122   108   106   ar
   123    95    94    1
   124   124   126    1
   125   124   121    1
   126   110   109   ar
   127   122   121    1
   128   122   127   am
   129   118   117    1
   130   130   129    2
   131    94    93    1
   132   106   105   ar
   133   128   127    1
   134   128   129    1
   135   121   120    1
   136   117   119    1
   137   117   116    1
   138   109   107   ar
   139    80    78   ar
   140    80    79   ar
   141    92    91    2
   142    78    76   ar
   143    88    86    1
   144   105   107   ar
   145   105   104    1
   146   115   114    2
   147    93    90    1
   148    79    77   ar
   149   116   113    1
   150    91    90    1
   151    91   100   am
   152   113   114    1
   153   113   112    1
   154    90    89    1
   155   101   104    1
   156   101   100    1
   157   101   102    1
   158    87    86    1
   159    76    75   ar
   160    86    85    1
   161   103   102    2
   162    77    75   ar
   163    75    74    1
   164    85    82    1
   165    82    81    1
   166    82    83    1
   167    84    83    2
   168    74    71    1
   169    73    72    2
   170    71    72    1
   171    71    70    1
