@<TRIPOS>MOLECULE
tmp/1ha2A01.pdb
 185 173 0 0 0
SMALL
GASTEIGER

@<TRIPOS>ATOM
      1  N         57.9050   12.6060   17.1770 N.3     5  VAL5       -0.1245
      2  CA        57.5260   13.0680   18.5100 C.3     5  VAL5        0.1561
      3  C         57.6790   14.5720   18.6620 C.2     5  VAL5        0.2260
      4  O         56.8000   15.2450   19.2050 O.2     5  VAL5       -0.2867
      5  CB        58.3950   12.4330   19.5970 C.3     5  VAL5        0.0252
      6  CG1       57.5500   12.1120   20.8080 C.3     5  VAL5        0.0019
      7  CG2       59.0950   11.2090   19.0530 C.3     5  VAL5        0.0019
      8  N         54.8630   16.4670   16.7730 N.3     8  ARG8       -0.1245
      9  CA        53.5770   16.4440   17.4660 C.3     8  ARG8        0.1563
     10  C         53.6010   17.3630   18.6680 C.2     8  ARG8        0.2260
     11  O         52.6110   18.0190   18.9910 O.2     8  ARG8       -0.2867
     12  CB        53.2620   15.0330   17.9600 C.3     8  ARG8        0.0307
     13  CG        53.3170   13.9790   16.9030 C.3     8  ARG8        0.0489
     14  CD        52.1370   14.0780   15.9740 C.3     8  ARG8        0.2205
     15  NE        52.1910   13.0110   14.9800 N.pl3   8  ARG8       -0.0865
     16  CZ        51.2000   12.7020   14.1510 C.cat   8  ARG8        0.5346
     17  NH1       50.0610   13.3810   14.1940 N.pl3   8  ARG8        0.1354
     18  NH2       51.3570   11.7180   13.2710 N.pl3   8  ARG8        0.1354
     19  N         51.2380   20.9500   18.9210 N.3    12  LEU12      -0.1245
     20  CA        50.1840   20.4820   19.8090 C.3    12  LEU12       0.1561
     21  C         50.2580   21.2600   21.1180 C.2    12  LEU12       0.2260
     22  O         49.2310   21.6600   21.6810 O.2    12  LEU12      -0.2867
     23  CB        50.3520   18.9840   20.0640 C.3    12  LEU12       0.0270
     24  CG        49.1280   18.0520   20.0830 C.3    12  LEU12       0.0019
     25  CD1       48.1660   18.3850   18.9460 C.3    12  LEU12       0.0001
     26  CD2       49.6000   16.6020   19.9610 C.3    12  LEU12       0.0001
     27  N         49.5690   17.9400   24.7280 N.3    17  PHE17      -0.1241
     28  CA        50.4030   16.7570   24.5780 C.3    17  PHE17       0.1605
     29  C         50.3300   15.8470   25.8020 C.2    17  PHE17       0.2264
     30  O         50.0970   14.6510   25.6920 O.2    17  PHE17      -0.2867
     31  CB        51.8410   17.1910   24.3740 C.3    17  PHE17       0.0534
     32  CG        52.7830   16.0620   24.1290 C.ar   17  PHE17      -0.0203
     33  CD1       53.0290   15.6190   22.8320 C.ar   17  PHE17      -0.0042
     34  CD2       53.4410   15.4510   25.1910 C.ar   17  PHE17      -0.0042
     35  CE1       53.9260   14.5780   22.5900 C.ar   17  PHE17      -0.0003
     36  CE2       54.3350   14.4150   24.9670 C.ar   17  PHE17      -0.0003
     37  CZ        54.5800   13.9730   23.6540 C.ar   17  PHE17      -0.0000
     38  N         46.8320   14.2580   26.1990 N.3    20  LEU20      -0.1231
     39  CA        46.5900   13.2370   25.1950 C.3    20  LEU20       0.1693
     40  C         47.3510   11.9790   25.5440 C.2    20  LEU20       0.2591
     41  O         46.7730   10.8960   25.5570 O.2    20  LEU20      -0.2718
     42  CB        47.0240   13.7390   23.8170 C.3    20  LEU20       0.0284
     43  CG        46.1260   14.8300   23.2140 C.3    20  LEU20       0.0019
     44  CD1       46.7620   15.3760   21.9270 C.3    20  LEU20       0.0001
     45  CD2       44.7460   14.2450   22.9170 C.3    20  LEU20       0.0001
     46  N         48.6440   12.1170   25.8310 N.am   21  VAL21      -0.1980
     47  CA        49.4580   10.9650   26.1800 C.3    21  VAL21       0.1595
     48  C         48.7980   10.2550   27.3340 C.2    21  VAL21       0.2287
     49  O         48.7730    9.0290   27.3990 O.2    21  VAL21      -0.2864
     50  CB        50.9010   11.3800   26.5930 C.3    21  VAL21       0.0276
     51  CG1       51.6510   10.1960   27.1680 C.3    21  VAL21       0.0022
     52  CG2       51.6550   11.8970   25.3730 C.3    21  VAL21       0.0022
     53  N         45.7180    8.4230   26.0790 N.3    24  ALA24      -0.1231
     54  CA        46.1730    7.2870   25.2890 C.3    24  ALA24       0.1694
     55  C         46.5720    6.1060   26.1520 C.2    24  ALA24       0.2592
     56  O         46.1470    4.9750   25.9000 O.2    24  ALA24      -0.2718
     57  CB        47.3350    7.6920   24.4000 C.3    24  ALA24       0.0304
     58  N         47.3910    6.3520   27.1640 N.am   25  PHE25      -0.1976
     59  CA        47.8140    5.2620   28.0380 C.3    25  PHE25       0.1639
     60  C         46.6700    4.7110   28.8720 C.2    25  PHE25       0.2290
     61  O         46.6070    3.5100   29.1170 O.2    25  PHE25      -0.2864
     62  CB        48.9470    5.7060   28.9600 C.3    25  PHE25       0.0560
     63  CG        50.2870    5.6930   28.3030 C.ar   25  PHE25      -0.0200
     64  CD1       50.7990    4.5160   27.7790 C.ar   25  PHE25      -0.0042
     65  CD2       51.0480    6.8490   28.2170 C.ar   25  PHE25      -0.0042
     66  CE1       52.0560    4.4870   27.1770 C.ar   25  PHE25      -0.0003
     67  CE2       52.3130    6.8340   27.6150 C.ar   25  PHE25      -0.0003
     68  CZ        52.8140    5.6480   27.0950 C.ar   25  PHE25      -0.0000
     69  N         57.4830   10.4060   28.9690 N.3    44  VAL44      -0.1245
     70  CA        57.2830   10.6010   27.5350 C.3    44  VAL44       0.1561
     71  C         57.4240   12.0870   27.2040 C.2    44  VAL44       0.2260
     72  O         57.9730   12.4480   26.1610 O.2    44  VAL44      -0.2867
     73  CB        55.8840   10.0580   27.0760 C.3    44  VAL44       0.0252
     74  CG1       55.6360   10.3790   25.6150 C.3    44  VAL44       0.0019
     75  CG2       55.8230    8.5390   27.2810 C.3    44  VAL44       0.0019
     76  N         56.0410    7.0430   16.3520 N.3    64  LEU64      -0.1245
     77  CA        55.1960    7.0760   17.5380 C.3    64  LEU64       0.1561
     78  C         54.6750    5.7040   17.9200 C.2    64  LEU64       0.2260
     79  O         54.6160    5.3770   19.1020 O.2    64  LEU64      -0.2867
     80  CB        54.0180    8.0240   17.3160 C.3    64  LEU64       0.0270
     81  CG        54.3960    9.4900   17.0800 C.3    64  LEU64       0.0019
     82  CD1       53.2020   10.2590   16.5200 C.3    64  LEU64       0.0001
     83  CD2       54.8870   10.1000   18.3830 C.3    64  LEU64       0.0001
     84  N         57.5810    3.9620   19.5300 N.3    67  LEU67      -0.1231
     85  CA        57.8390    4.5380   20.8420 C.3    67  LEU67       0.1693
     86  C         56.7470    4.1600   21.8210 C.2    67  LEU67       0.2592
     87  O         57.0290    3.6280   22.9000 O.2    67  LEU67      -0.2718
     88  CB        58.0000    6.0630   20.7380 C.3    67  LEU67       0.0284
     89  CG        59.3510    6.4810   20.1150 C.3    67  LEU67       0.0019
     90  CD1       59.3430    7.9480   19.7280 C.3    67  LEU67       0.0001
     91  CD2       60.4760    6.1830   21.1000 C.3    67  LEU67       0.0001
     92  N         55.5020    4.4160   21.4320 N.am   68  PHE68      -0.1976
     93  CA        54.3490    4.0920   22.2610 C.3    68  PHE68       0.1639
     94  C         54.3390    2.6170   22.6440 C.2    68  PHE68       0.2290
     95  O         54.0340    2.2650   23.7750 O.2    68  PHE68      -0.2864
     96  CB        53.0620    4.4200   21.5240 C.3    68  PHE68       0.0560
     97  CG        51.8390    4.2160   22.3530 C.ar   68  PHE68      -0.0200
     98  CD1       51.5830    5.0400   23.4400 C.ar   68  PHE68      -0.0042
     99  CD2       50.9670    3.1680   22.0810 C.ar   68  PHE68      -0.0042
    100  CE1       50.4780    4.8290   24.2550 C.ar   68  PHE68      -0.0003
    101  CE2       49.8540    2.9410   22.8880 C.ar   68  PHE68      -0.0003
    102  CZ        49.6070    3.7760   23.9840 C.ar   68  PHE68      -0.0000
    103  N         37.2730    8.9830   20.8010 N.3   148  TYR148     -0.1241
    104  CA        38.3680    9.7000   20.1690 C.3   148  TYR148      0.1605
    105  C         39.0080   10.6400   21.2180 C.2   148  TYR148      0.2264
    106  O         38.3570   11.5560   21.7340 O.2   148  TYR148     -0.2867
    107  CB        37.8510   10.4870   18.9710 C.3   148  TYR148      0.0534
    108  CG        38.9380   11.1180   18.1520 C.ar  148  TYR148     -0.0201
    109  CD1       40.0290   10.3630   17.7010 C.ar  148  TYR148     -0.0009
    110  CD2       38.8970   12.4730   17.8430 C.ar  148  TYR148     -0.0009
    111  CE1       41.0550   10.9480   16.9630 C.ar  148  TYR148      0.0417
    112  CE2       39.9150   13.0700   17.1060 C.ar  148  TYR148      0.0417
    113  CZ        40.9920   12.2980   16.6710 C.ar  148  TYR148      0.1957
    114  OH        42.0050   12.8940   15.9590 O.3   148  TYR148     -0.2866
    115  N         41.1440   13.2960   21.3460 N.3   150  PRO150     -0.2116
    116  CA        41.0180   14.7450   21.2080 C.3   150  PRO150      0.1372
    117  C         39.6700   15.2740   21.6630 C.2   150  PRO150      0.2244
    118  O         39.5740   16.3400   22.2830 O.2   150  PRO150     -0.2868
    119  CB        41.2470   14.9610   19.7190 C.3   150  PRO150      0.0268
    120  CG        42.2630   13.9200   19.4070 C.3   150  PRO150      0.0207
    121  CD        41.6840   12.7050   20.1090 C.3   150  PRO150      0.0892
    122  N         44.3850    5.0820   17.2970 N.3   248  LEU248     -0.1231
    123  CA        44.3770    6.5250   17.5050 C.3   248  LEU248      0.1693
    124  C         45.2590    7.3460   16.5810 C.2   248  LEU248      0.2591
    125  O         44.7940    8.3420   16.0250 O.2   248  LEU248     -0.2718
    126  CB        44.7200    6.8400   18.9610 C.3   248  LEU248      0.0284
    127  CG        44.9460    8.3040   19.3730 C.3   248  LEU248      0.0019
    128  CD1       43.8290    9.1980   18.8550 C.3   248  LEU248      0.0001
    129  CD2       45.0240    8.3890   20.8790 C.3   248  LEU248      0.0001
    130  N         46.5120    6.9310   16.3970 N.am  249  LEU249     -0.1980
    131  CA        47.4350    7.6740   15.5500 C.3   249  LEU249      0.1596
    132  C         47.0110    7.7880   14.0940 C.2   249  LEU249      0.2287
    133  O         46.9200    8.8930   13.5570 O.2   249  LEU249     -0.2864
    134  CB        48.8390    7.0670   15.6250 C.3   249  LEU249      0.0297
    135  CG        49.5340    7.0240   16.9980 C.3   249  LEU249      0.0022
    136  CD1       51.0000    6.6310   16.7940 C.3   249  LEU249      0.0001
    137  CD2       49.4350    8.3770   17.7000 C.3   249  LEU249      0.0001
    138  N         43.9770    9.9910   13.8670 N.3   252  ALA252     -0.1245
    139  CA        44.2350   11.4180   14.0160 C.3   252  ALA252      0.1562
    140  C         44.8560   12.0510   12.7730 C.2   252  ALA252      0.2260
    141  O         44.5160   13.1740   12.4170 O.2   252  ALA252     -0.2867
    142  CB        45.1230   11.6660   15.2380 C.3   252  ALA252      0.0290
    143  N         42.3330   12.4030    9.9420 N.3   255  ARG255     -0.1231
    144  CA        41.4550   13.5080   10.2830 C.3   255  ARG255      0.1694
    145  C         42.1640   14.8420   10.1000 C.2   255  ARG255      0.2591
    146  O         41.5680   15.8230    9.6610 O.2   255  ARG255     -0.2718
    147  CB        40.9650   13.3710   11.7280 C.3   255  ARG255      0.0321
    148  CG        40.0880   12.1660   11.9520 C.3   255  ARG255      0.0489
    149  CD        39.4920   12.1740   13.3310 C.3   255  ARG255      0.2205
    150  NE        38.9570   13.4850   13.6660 N.pl3 255  ARG255     -0.0865
    151  CZ        37.7220   13.7120   14.1100 C.cat 255  ARG255      0.5346
    152  NH1       36.8670   12.7090   14.2690 N.pl3 255  ARG255      0.1354
    153  NH2       37.3500   14.9500   14.4200 N.pl3 255  ARG255      0.1354
    154  N         43.4430   14.8850   10.4450 N.am  256  ALA256     -0.1980
    155  CA        44.2100   16.1050   10.3050 C.3   256  ALA256      0.1597
    156  C         44.3060   16.4640    8.8240 C.2   256  ALA256      0.2287
    157  O         43.9950   17.5900    8.4180 O.2   256  ALA256     -0.2864
    158  CB        45.5820   15.9080   10.8810 C.3   256  ALA256      0.0319
    159  N         41.0450   17.7210    7.4180 N.3   259  ALA259     -0.1245
    160  CA        40.7480   19.0680    7.8820 C.3   259  ALA259      0.1562
    161  C         41.5680   20.0760    7.0780 C.2   259  ALA259      0.2260
    162  O         41.0710   21.1330    6.6720 O.2   259  ALA259     -0.2867
    163  CB        41.0650   19.1850    9.3610 C.3   259  ALA259      0.0290
    164  N         45.1730   23.2020   15.2030 N.3   281  LEU281     -0.1231
    165  CA        45.2200   21.8050   14.7860 C.3   281  LEU281      0.1693
    166  C         44.2510   20.8820   15.5160 C.2   281  LEU281      0.2591
    167  O         43.3940   20.2310   14.9170 O.2   281  LEU281     -0.2718
    168  CB        46.6350   21.2770   14.9870 C.3   281  LEU281      0.0284
    169  CG        46.8340   19.7820   14.7490 C.3   281  LEU281      0.0019
    170  CD1       46.9070   19.4970   13.2550 C.3   281  LEU281      0.0001
    171  CD2       48.1190   19.3390   15.4220 C.3   281  LEU281      0.0001
    172  N         44.4030   20.8330   16.8260 N.am  282  LEU282     -0.1980
    173  CA        43.5910   19.9760   17.6570 C.3   282  LEU282      0.1596
    174  C         42.0830   20.1510   17.5250 C.2   282  LEU282      0.2287
    175  O         41.3300   19.2510   17.8720 O.2   282  LEU282     -0.2864
    176  CB        43.9990   20.1840   19.1040 C.3   282  LEU282      0.0297
    177  CG        43.5300   19.1270   20.0820 C.3   282  LEU282      0.0022
    178  CD1       44.1720   17.7960   19.7280 C.3   282  LEU282      0.0001
    179  CD2       43.9090   19.5540   21.4780 C.3   282  LEU282      0.0001
    180  N         39.1680   19.6820   12.7040 N.3   285  SER285     -0.1217
    181  CA        38.2600   18.6030   12.3320 C.3   285  SER285      0.1889
    182  C         36.9950   18.5510   13.1950 C.2   285  SER285      0.2288
    183  O         35.8960   18.3470   12.6790 O.2   285  SER285     -0.2866
    184  CB        38.9970   17.2560   12.3910 C.3   285  SER285      0.2089
    185  OG        39.3330   16.9140   13.7220 O.3   285  SER285     -0.2183
@<TRIPOS>BOND
     1   162   161    2
     2   161   160    1
     3   159   160    1
     4   160   163    1
     5   157   156    2
     6   156   155    1
     7   146   145    2
     8   143   144    1
     9   145   144    1
    10   145   154   am
    11   144   147    1
    12   155   154    1
    13   155   158    1
    14   147   148    1
    15   148   149    1
    16   181   184    1
    17   181   180    1
    18   181   182    1
    19   184   185    1
    20   141   140    2
    21   183   182    2
    22   140   139    1
    23   170   169    1
    24    18    16    1
    25   149   150    1
    26   133   132    2
    27   150   151    2
    28   138   139    1
    29   139   142    1
    30   132   131    1
    31   151   152    1
    32   151   153    1
    33    16    17    1
    34    16    15    2
    35   169   168    1
    36   169   171    1
    37   165   168    1
    38   165   164    1
    39   165   166    1
    40   167   166    2
    41    15    14    1
    42   166   172   am
    43   131   134    1
    44   131   130    1
    45   134   135    1
    46   114   113    1
    47    14    13    1
    48   125   124    2
    49    76    77    1
    50   130   124   am
    51    82    81    1
    52   124   123    1
    53   113   111   ar
    54   113   112   ar
    55     8     9    1
    56   136   135    1
    57   172   173    1
    58    13    12    1
    59   111   109   ar
    60   135   137    1
    61    81    80    1
    62    81    83    1
    63   112   110   ar
    64     1     2    1
    65   122   123    1
    66    80    77    1
    67     9    12    1
    68     9    10    1
    69   123   126    1
    70   174   173    1
    71   174   175    2
    72    77    78    1
    73   173   176    1
    74   109   108   ar
    75   110   108   ar
    76    78    79    2
    77   108   107    1
    78     2     3    1
    79     2     5    1
    80     3     4    2
    81    10    11    2
    82   128   127    1
    83    19    20    1
    84    25    24    1
    85   126   127    1
    86   107   104    1
    87     7     5    1
    88   176   177    1
    89   127   129    1
    90   120   119    1
    91   120   121    1
    92    84    85    1
    93     5     6    1
    94   119   116    1
    95   178   177    1
    96    90    89    1
    97    20    23    1
    98    20    21    1
    99    26    24    1
   100    23    24    1
   101   177   179    1
   102   121   115    1
   103    89    88    1
   104    89    91    1
   105   104   103    1
   106   104   105    1
   107    88    85    1
   108    85    86    1
   109    21    22    2
   110   116   115    1
   111   116   117    1
   112   105   106    2
   113    92    86   am
   114    92    93    1
   115    96    93    1
   116    96    97    1
   117   117   118    2
   118    86    87    2
   119    44    43    1
   120    99    97   ar
   121    99   101   ar
   122    93    94    1
   123    97    98   ar
   124    35    33   ar
   125    35    37   ar
   126    94    95    2
   127    33    32   ar
   128   101   102   ar
   129    45    43    1
   130    43    42    1
   131    98   100   ar
   132    37    36   ar
   133    42    39    1
   134   102   100   ar
   135    32    31    1
   136    32    34   ar
   137    31    28    1
   138    57    54    1
   139    28    27    1
   140    28    29    1
   141    36    34   ar
   142    39    40    1
   143    39    38    1
   144    54    53    1
   145    54    55    1
   146    52    50    1
   147    40    41    2
   148    40    46   am
   149    74    73    1
   150    30    29    2
   151    46    47    1
   152    56    55    2
   153    55    58   am
   154    72    71    2
   155    47    50    1
   156    47    48    1
   157    50    51    1
   158    73    75    1
   159    73    70    1
   160    68    66   ar
   161    68    67   ar
   162    58    59    1
   163    66    64   ar
   164    71    70    1
   165    48    49    2
   166    70    69    1
   167    67    65   ar
   168    64    63   ar
   169    59    60    1
   170    59    62    1
   171    65    63   ar
   172    63    62    1
   173    60    61    2
