@<TRIPOS>MOLECULE
tmp/1ha2A00.pdb
 154 149 0 0 0
SMALL
GASTEIGER

@<TRIPOS>ATOM
      1  N         31.4130    5.2550   38.1450 N.3   113  LEU113     -0.1231
      2  CA        31.9500    6.4810   38.7360 C.3   113  LEU113      0.1693
      3  C         30.8160    7.2380   39.4240 C.2   113  LEU113      0.2592
      4  O         29.7850    7.5120   38.8160 O.2   113  LEU113     -0.2718
      5  CB        32.5640    7.3460   37.6320 C.3   113  LEU113      0.0284
      6  CG        33.9580    7.9450   37.8100 C.3   113  LEU113      0.0019
      7  CD1       34.9530    6.8500   38.1490 C.3   113  LEU113      0.0001
      8  CD2       34.3680    8.6580   36.5220 C.3   113  LEU113      0.0001
      9  N         30.9870    7.5640   40.6960 N.am  114  VAL114     -0.1966
     10  CA        29.9390    8.2850   41.4050 C.3   114  VAL114      0.1727
     11  C         30.2400    9.7740   41.4850 C.2   114  VAL114      0.2616
     12  O         31.3870   10.1890   41.6280 O.2   114  VAL114     -0.2715
     13  CB        29.7380    7.7410   42.8340 C.3   114  VAL114      0.0290
     14  CG1       29.4430    6.2490   42.7790 C.3   114  VAL114      0.0023
     15  CG2       30.9700    8.0200   43.6780 C.3   114  VAL114      0.0023
     16  N         29.1970   10.5810   41.3810 N.am  115  ARG115     -0.1964
     17  CA        29.3610   12.0160   41.4460 C.3   115  ARG115      0.1714
     18  C         29.3650   12.4580   42.9060 C.2   115  ARG115      0.2458
     19  O         28.3660   12.3060   43.6190 O.2   115  ARG115     -0.2730
     20  CB        28.2280   12.7170   40.6860 C.3   115  ARG115      0.0347
     21  CG        28.4340   14.2160   40.4920 C.3   115  ARG115      0.0492
     22  CD        27.1910   14.9120   39.9290 C.3   115  ARG115      0.2205
     23  NE        26.9160   14.5640   38.5340 N.pl3 115  ARG115     -0.0865
     24  CZ        25.9900   15.1540   37.7780 C.cat 115  ARG115      0.5346
     25  NH1       25.2410   16.1260   38.2790 N.pl3 115  ARG115      0.1354
     26  NH2       25.8160   14.7750   36.5190 N.pl3 115  ARG115      0.1354
     27  N         30.5140   12.9690   43.3810 N.am  116  PRO116     -0.2727
     28  CA        30.6160   13.4340   44.7620 C.3   116  PRO116      0.1402
     29  C         29.8590   14.7490   44.9040 C.2   116  PRO116      0.2269
     30  O         29.3900   15.3100   43.9110 O.2   116  PRO116     -0.2865
     31  CB        32.1200   13.5920   44.9600 C.3   116  PRO116      0.0296
     32  CG        32.6150   13.9070   43.5970 C.3   116  PRO116      0.0237
     33  CD        31.8380   12.9540   42.7380 C.3   116  PRO116      0.0939
     34  N         33.7910   18.4750   45.3840 N.3   121  MET121     -0.1245
     35  CA        34.3980   18.6860   44.0720 C.3   121  MET121      0.1570
     36  C         35.1130   20.0300   43.9860 C.2   121  MET121      0.2261
     37  O         36.3100   20.0870   43.7060 O.2   121  MET121     -0.2867
     38  CB        33.3460   18.6210   42.9770 C.3   121  MET121      0.0387
     39  CG        32.6300   17.2940   42.9010 C.3   121  MET121      0.0595
     40  SD        31.5610   17.2600   41.4720 S.3   121  MET121     -0.1393
     41  CE        32.7430   16.6630   40.3400 C.3   121  MET121      0.0692
     42  N         43.0640   17.1380   39.7870 N.3   132  PHE132     -0.1227
     43  CA        41.6370   16.8800   39.9000 C.3   132  PHE132      0.1736
     44  C         41.0700   16.4990   38.5330 C.2   132  PHE132      0.2595
     45  O         40.3470   15.5240   38.4080 O.2   132  PHE132     -0.2718
     46  CB        40.9160   18.1250   40.4360 C.3   132  PHE132      0.0547
     47  CG        39.4220   18.0080   40.4340 C.ar  132  PHE132     -0.0202
     48  CD1       38.7640   17.2940   41.4300 C.ar  132  PHE132     -0.0042
     49  CD2       38.6690   18.6010   39.4230 C.ar  132  PHE132     -0.0042
     50  CE1       37.3660   17.1730   41.4200 C.ar  132  PHE132     -0.0003
     51  CE2       37.2730   18.4860   39.4050 C.ar  132  PHE132     -0.0003
     52  CZ        36.6230   17.7720   40.4050 C.ar  132  PHE132     -0.0000
     53  N         41.4160   17.2750   37.5150 N.am  133  LEU133     -0.1980
     54  CA        40.9430   17.0350   36.1610 C.3   133  LEU133      0.1596
     55  C         41.6290   15.8680   35.4720 C.2   133  LEU133      0.2287
     56  O         41.0090   15.1620   34.6860 O.2   133  LEU133     -0.2864
     57  CB        41.1180   18.2980   35.3210 C.3   133  LEU133      0.0297
     58  CG        40.2290   19.4620   35.7700 C.3   133  LEU133      0.0022
     59  CD1       40.6370   20.7380   35.0510 C.3   133  LEU133      0.0001
     60  CD2       38.7740   19.1290   35.4950 C.3   133  LEU133      0.0001
     61  N         40.1770   12.5610   36.6520 N.3   136  TYR136     -0.1227
     62  CA        38.9320   12.2250   36.0090 C.3   136  TYR136      0.1736
     63  C         39.1090   11.9370   34.5420 C.2   136  TYR136      0.2595
     64  O         38.4440   11.0670   33.9930 O.2   136  TYR136     -0.2718
     65  CB        37.9200   13.3410   36.2090 C.3   136  TYR136      0.0548
     66  CG        37.2320   13.2480   37.5370 C.ar  136  TYR136     -0.0200
     67  CD1       36.3370   12.2090   37.8060 C.ar  136  TYR136     -0.0009
     68  CD2       37.4960   14.1750   38.5460 C.ar  136  TYR136     -0.0009
     69  CE1       35.7210   12.0940   39.0520 C.ar  136  TYR136      0.0417
     70  CE2       36.8860   14.0720   39.7970 C.ar  136  TYR136      0.0417
     71  CZ        36.0010   13.0300   40.0390 C.ar  136  TYR136      0.1957
     72  OH        35.3910   12.9410   41.2630 O.3   136  TYR136     -0.2866
     73  N         40.0100   12.6620   33.9030 N.am  137  LEU137     -0.1980
     74  CA        40.2610   12.4260   32.4990 C.3   137  LEU137      0.1596
     75  C         40.6650   10.9520   32.4290 C.2   137  LEU137      0.2287
     76  O         40.2200   10.2030   31.5540 O.2   137  LEU137     -0.2864
     77  CB        41.3840   13.3390   32.0270 C.3   137  LEU137      0.0297
     78  CG        41.5820   13.5690   30.5350 C.3   137  LEU137      0.0022
     79  CD1       40.2570   13.9470   29.8760 C.3   137  LEU137      0.0001
     80  CD2       42.6050   14.6750   30.3450 C.3   137  LEU137      0.0001
     81  N         37.6250    8.5220   33.0750 N.3   140  ILE140     -0.1245
     82  CA        36.7570    8.5010   31.9130 C.3   140  ILE140      0.1561
     83  C         37.4120    7.7620   30.7360 C.2   140  ILE140      0.2260
     84  O         36.7950    6.8900   30.1190 O.2   140  ILE140     -0.2867
     85  CB        36.4100    9.9380   31.4800 C.3   140  ILE140      0.0252
     86  CG1       35.7720   10.6900   32.6540 C.3   140  ILE140      0.0019
     87  CG2       35.4660    9.9200   30.2860 C.3   140  ILE140      0.0019
     88  CD1       34.4990   10.0670   33.1750 C.3   140  ILE140      0.0001
     89  N         37.7340   13.8250   23.8000 N.3   152  LEU152     -0.1245
     90  CA        37.6520   13.6150   25.2310 C.3   152  LEU152      0.1561
     91  C         38.3600   14.7800   25.9070 C.2   152  LEU152      0.2260
     92  O         37.9920   15.2000   27.0090 O.2   152  LEU152     -0.2867
     93  CB        38.3020   12.2890   25.5920 C.3   152  LEU152      0.0270
     94  CG        38.1790   11.8140   27.0320 C.3   152  LEU152      0.0019
     95  CD1       36.7240   11.8750   27.4960 C.3   152  LEU152      0.0001
     96  CD2       38.7200   10.3920   27.1020 C.3   152  LEU152      0.0001
     97  N         36.0860   17.8120   25.8210 N.3   155  PHE155     -0.1227
     98  CA        35.0910   17.7660   26.8930 C.3   155  PHE155      0.1736
     99  C         35.7020   18.1870   28.2250 C.2   155  PHE155      0.2595
    100  O         35.0480   18.8210   29.0530 O.2   155  PHE155     -0.2718
    101  CB        34.5380   16.3570   27.0430 C.3   155  PHE155      0.0547
    102  CG        33.3300   16.0940   26.2150 C.ar  155  PHE155     -0.0202
    103  CD1       32.0820   16.5110   26.6430 C.ar  155  PHE155     -0.0042
    104  CD2       33.4390   15.4400   24.9880 C.ar  155  PHE155     -0.0042
    105  CE1       30.9670   16.2820   25.8640 C.ar  155  PHE155     -0.0003
    106  CE2       32.3370   15.2130   24.2080 C.ar  155  PHE155     -0.0003
    107  CZ        31.0970   15.6320   24.6410 C.ar  155  PHE155     -0.0000
    108  N         36.9590   17.8180   28.4340 N.am  156  ALA156     -0.1980
    109  CA        37.6470   18.1440   29.6790 C.3   156  ALA156      0.1597
    110  C         37.6910   19.6410   29.8820 C.2   156  ALA156      0.2287
    111  O         37.5400   20.1380   30.9980 O.2   156  ALA156     -0.2864
    112  CB        39.0660   17.5710   29.6660 C.3   156  ALA156      0.0319
    113  N         34.4340   20.9420   31.0650 N.3   159  TYR159     -0.1241
    114  CA        34.2910   20.6090   32.4700 C.3   159  TYR159      0.1605
    115  C         35.0620   21.6210   33.3270 C.2   159  TYR159      0.2264
    116  O         34.5630   22.0850   34.3560 O.2   159  TYR159     -0.2867
    117  CB        34.7990   19.1890   32.7250 C.3   159  TYR159      0.0534
    118  CG        33.7070   18.1560   32.6180 C.ar  159  TYR159     -0.0201
    119  CD1       32.8240   17.9340   33.6720 C.ar  159  TYR159     -0.0009
    120  CD2       33.5270   17.4290   31.4430 C.ar  159  TYR159     -0.0009
    121  CE1       31.7910   17.0090   33.5540 C.ar  159  TYR159      0.0417
    122  CE2       32.4950   16.5110   31.3110 C.ar  159  TYR159      0.0417
    123  CZ        31.6360   16.3030   32.3660 C.ar  159  TYR159      0.1957
    124  OH        30.6340   15.3780   32.2350 O.3   159  TYR159     -0.2866
    125  N         33.6420   24.4560   36.2420 N.3   163  PHE163     -0.1241
    126  CA        34.0620   24.5050   37.6340 C.3   163  PHE163      0.1605
    127  C         34.5500   25.9090   37.9670 C.2   163  PHE163      0.2264
    128  O         34.1790   26.4800   38.9910 O.2   163  PHE163     -0.2867
    129  CB        35.1400   23.4440   37.9040 C.3   163  PHE163      0.0534
    130  CG        34.5760   22.0730   38.1690 C.ar  163  PHE163     -0.0203
    131  CD1       34.2300   21.6860   39.4590 C.ar  163  PHE163     -0.0042
    132  CD2       34.3510   21.1820   37.1270 C.ar  163  PHE163     -0.0042
    133  CE1       33.6700   20.4320   39.7050 C.ar  163  PHE163     -0.0003
    134  CE2       33.7930   19.9290   37.3590 C.ar  163  PHE163     -0.0003
    135  CZ        33.4500   19.5510   38.6430 C.ar  163  PHE163     -0.0000
    136  N         26.7880   20.0070   34.6790 N.3   180  LEU180     -0.1245
    137  CA        27.3360   18.6660   34.7230 C.3   180  LEU180      0.1561
    138  C         26.3890   17.6700   34.0780 C.2   180  LEU180      0.2260
    139  O         26.8330   16.7990   33.3330 O.2   180  LEU180     -0.2867
    140  CB        27.6220   18.2450   36.1640 C.3   180  LEU180      0.0270
    141  CG        28.8880   18.7890   36.8290 C.3   180  LEU180      0.0019
    142  CD1       28.9740   18.2600   38.2400 C.3   180  LEU180      0.0001
    143  CD2       30.1080   18.3770   36.0360 C.3   180  LEU180      0.0001
    144  N         27.3200   15.3250   30.8780 N.3   184  ARG184     -0.1245
    145  CA        27.2000   13.8810   30.8430 C.3   184  ARG184      0.1563
    146  C         26.3940   13.4040   29.6260 C.2   184  ARG184      0.2260
    147  O         26.8970   12.6600   28.7820 O.2   184  ARG184     -0.2867
    148  CB        26.5400   13.4030   32.1290 C.3   184  ARG184      0.0307
    149  CG        26.3990   11.9120   32.2590 C.3   184  ARG184      0.0489
    150  CD        25.4720   11.6420   33.4050 C.3   184  ARG184      0.2205
    151  NE        24.2350   12.3940   33.2100 N.pl3 184  ARG184     -0.0865
    152  CZ        23.4160   12.7640   34.1890 C.cat 184  ARG184      0.5346
    153  NH1       23.7070   12.4490   35.4500 N.pl3 184  ARG184      0.1354
    154  NH2       22.3130   13.4550   33.9060 N.pl3 184  ARG184      0.1354
@<TRIPOS>BOND
     1    89    90    1
     2   106   107   ar
     3   106   104   ar
     4   107   105   ar
     5   104   102   ar
     6    90    93    1
     7    90    91    1
     8    93    94    1
     9    97    98    1
    10   105   103   ar
    11    91    92    2
    12   102   103   ar
    13   102   101    1
    14    98   101    1
    15    98    99    1
    16    94    96    1
    17    94    95    1
    18    99   108   am
    19    99   100    2
    20   108   109    1
    21   147   146    2
    22   146   145    1
    23   112   109    1
    24   109   110    1
    25    79    78    1
    26   110   111    2
    27    84    83    2
    28    87    85    1
    29    80    78    1
    30    78    77    1
    31    83    82    1
    32   145   144    1
    33   145   148    1
    34   113   114    1
    35   122   120   ar
    36   122   123   ar
    37   120   118   ar
    38    85    82    1
    39    85    86    1
    40    76    75    2
    41    82    81    1
    42    77    74    1
    43   148   149    1
    44   124   123    1
    45   149   150    1
    46   123   121   ar
    47    75    74    1
    48   114   117    1
    49   114   115    1
    50    74    73    1
    51   118   117    1
    52   118   119   ar
    53    86    88    1
    54   151   150    1
    55   151   152    2
    56   115   116    2
    57   139   138    2
    58   121   119   ar
    59    73    63   am
    60   154   152    1
    61    64    63    2
    62   138   137    1
    63   152   153    1
    64    63    62    1
    65   136   137    1
    66    56    55    2
    67   137   140    1
    68    59    58    1
    69    57    58    1
    70    57    54    1
    71    55    54    1
    72    60    58    1
    73    62    65    1
    74    62    61    1
    75   143   141    1
    76    54    53    1
    77   140   141    1
    78    65    66    1
    79   125   126    1
    80    26    24    1
    81     8     6    1
    82   141   142    1
    83   132   134   ar
    84   132   130   ar
    85   134   135   ar
    86    53    44   am
    87    66    67   ar
    88    66    68   ar
    89     5     6    1
    90     5     2    1
    91   126   129    1
    92   126   127    1
    93    24    25    1
    94    24    23    2
    95    67    69   ar
    96     6     7    1
    97   129   130    1
    98   127   128    2
    99     1     2    1
   100   130   131   ar
   101    45    44    2
   102    44    43    1
   103    23    22    1
   104    68    70   ar
   105   135   133   ar
   106     2     3    1
   107     4     3    2
   108    69    71   ar
   109    51    49   ar
   110    51    52   ar
   111    49    47   ar
   112     3     9   am
   113   131   133   ar
   114    42    43    1
   115    70    71   ar
   116    43    46    1
   117    22    21    1
   118    71    72    1
   119    41    40    1
   120    52    50   ar
   121    47    46    1
   122    47    48   ar
   123    21    20    1
   124    20    17    1
   125     9    10    1
   126    16    17    1
   127    16    11   am
   128    10    11    1
   129    10    13    1
   130    50    48   ar
   131    17    18    1
   132    40    39    1
   133    11    12    2
   134    33    27    1
   135    33    32    1
   136    14    13    1
   137    13    15    1
   138    39    38    1
   139    18    27   am
   140    18    19    2
   141    38    35    1
   142    27    28    1
   143    32    31    1
   144    37    36    2
   145    30    29    2
   146    36    35    1
   147    35    34    1
   148    28    29    1
   149    28    31    1
