@<TRIPOS>MOLECULE
tmp/1ha2A04.pdb
 180 172 0 0 0
SMALL
GASTEIGER

@<TRIPOS>ATOM
      1  N          7.2470   16.4070   31.2260 N.3   399  TYR399     -0.1227
      2  CA         6.7860   15.3830   32.1530 C.3   399  TYR399      0.1736
      3  C          5.4880   14.6820   31.7360 C.2   399  TYR399      0.2595
      4  O          5.4560   13.4600   31.5990 O.2   399  TYR399     -0.2718
      5  CB         6.6150   15.9950   33.5510 C.3   399  TYR399      0.0548
      6  CG         6.1790   14.9920   34.5860 C.ar  399  TYR399     -0.0200
      7  CD1        7.0110   13.9230   34.9390 C.ar  399  TYR399     -0.0009
      8  CD2        4.9140   15.0720   35.1750 C.ar  399  TYR399     -0.0009
      9  CE1        6.5940   12.9540   35.8450 C.ar  399  TYR399      0.0417
     10  CE2        4.4850   14.1070   36.0880 C.ar  399  TYR399      0.0417
     11  CZ         5.3320   13.0480   36.4170 C.ar  399  TYR399      0.1957
     12  OH         4.9210   12.0860   37.3110 O.3   399  TYR399     -0.2866
     13  N          4.4170   15.4430   31.5450 N.am  400  LYS400     -0.1980
     14  CA         3.1460   14.8420   31.1580 C.3   400  LYS400      0.1596
     15  C          3.2350   14.2400   29.7630 C.2   400  LYS400      0.2287
     16  O          2.4970   13.3120   29.4240 O.2   400  LYS400     -0.2864
     17  CB         2.0100   15.8720   31.2390 C.3   400  LYS400      0.0298
     18  CG         1.6980   16.2980   32.6740 C.3   400  LYS400      0.0038
     19  CD         0.4680   17.1950   32.7800 C.3   400  LYS400      0.0206
     20  CE        -0.8110   16.4460   32.4270 C.3   400  LYS400      0.1093
     21  NZ        -2.0230   17.3020   32.6170 N.3   400  LYS400     -0.1314
     22  N          4.6470   10.8790   30.1640 N.3   403  ASN403     -0.1240
     23  CA         3.6440    9.9470   30.6400 C.3   403  ASN403      0.1653
     24  C          2.7800    9.4380   29.5030 C.2   403  ASN403      0.2266
     25  O          2.3270    8.2900   29.5120 O.2   403  ASN403     -0.2867
     26  CB         2.7810   10.6100   31.7040 C.3   403  ASN403      0.1155
     27  CG         3.5530   10.8810   32.9750 C.2   403  ASN403      0.2627
     28  OD1        4.7080   10.4600   33.1090 O.2   403  ASN403     -0.2716
     29  ND2        2.9230   11.5730   33.9210 N.am  403  ASN403     -0.0877
     30  N         -3.1710   -8.3820   39.4180 N.3   500  PHE500     -0.1241
     31  CA        -2.9240   -7.3770   40.4460 C.3   500  PHE500      0.1605
     32  C         -1.9040   -7.7430   41.5160 C.2   500  PHE500      0.2264
     33  O         -1.8370   -8.8880   41.9670 O.2   500  PHE500     -0.2867
     34  CB        -4.2290   -6.9980   41.1400 C.3   500  PHE500      0.0534
     35  CG        -4.1110   -5.7830   42.0050 C.ar  500  PHE500     -0.0203
     36  CD1       -4.2000   -4.5100   41.4490 C.ar  500  PHE500     -0.0042
     37  CD2       -3.8740   -5.9070   43.3710 C.ar  500  PHE500     -0.0042
     38  CE1       -4.0560   -3.3750   42.2410 C.ar  500  PHE500     -0.0003
     39  CE2       -3.7260   -4.7790   44.1760 C.ar  500  PHE500     -0.0003
     40  CZ        -3.8170   -3.5100   43.6100 C.ar  500  PHE500     -0.0000
     41  N          1.3840   -1.1910   43.9030 N.3   505  PHE505     -0.1241
     42  CA         0.5870    0.0240   44.0110 C.3   505  PHE505      0.1605
     43  C          0.4030    0.5580   45.4310 C.2   505  PHE505      0.2264
     44  O         -0.6520    1.0830   45.7800 O.2   505  PHE505     -0.2867
     45  CB        -0.7750   -0.2070   43.3480 C.3   505  PHE505      0.0534
     46  CG        -0.6790   -0.5850   41.9000 C.ar  505  PHE505     -0.0203
     47  CD1       -0.2670    0.3440   40.9520 C.ar  505  PHE505     -0.0042
     48  CD2       -0.9600   -1.8830   41.4870 C.ar  505  PHE505     -0.0042
     49  CE1       -0.1340   -0.0120   39.6130 C.ar  505  PHE505     -0.0003
     50  CE2       -0.8300   -2.2490   40.1480 C.ar  505  PHE505     -0.0003
     51  CZ        -0.4150   -1.3110   39.2120 C.ar  505  PHE505     -0.0000
     52  N          2.0070    3.1180   48.4900 N.3   507  PHE507     -0.1241
     53  CA         2.9040    4.2570   48.6660 C.3   507  PHE507      0.1605
     54  C          3.0380    4.7960   50.0840 C.2   507  PHE507      0.2264
     55  O          2.0780    4.8150   50.8570 O.2   507  PHE507     -0.2867
     56  CB         2.4790    5.4010   47.7550 C.3   507  PHE507      0.0534
     57  CG         2.2300    4.9810   46.3470 C.ar  507  PHE507     -0.0203
     58  CD1        1.0650    4.2970   46.0110 C.ar  507  PHE507     -0.0042
     59  CD2        3.1660    5.2480   45.3540 C.ar  507  PHE507     -0.0042
     60  CE1        0.8340    3.8850   44.7070 C.ar  507  PHE507     -0.0003
     61  CE2        2.9480    4.8400   44.0440 C.ar  507  PHE507     -0.0003
     62  CZ         1.7780    4.1570   43.7200 C.ar  507  PHE507     -0.0000
     63  N          6.4620    7.6160   40.1950 N.3   523  LYS523     -0.1245
     64  CA         5.1110    7.7370   39.6530 C.3   523  LYS523      0.1561
     65  C          5.0160    7.0600   38.2910 C.2   523  LYS523      0.2260
     66  O          4.0580    6.3320   38.0060 O.2   523  LYS523     -0.2867
     67  CB         4.7380    9.2060   39.4820 C.3   523  LYS523      0.0271
     68  CG         4.3920    9.9620   40.7550 C.3   523  LYS523      0.0035
     69  CD         4.4690   11.4640   40.4780 C.3   523  LYS523      0.0206
     70  CE         3.6850   12.2790   41.4880 C.3   523  LYS523      0.1093
     71  NZ         3.6590   13.7260   41.1110 N.3   523  LYS523     -0.1314
     72  N          4.8820    3.2840   38.4640 N.3   526  ALA526     -0.1231
     73  CA         3.5710    2.8080   38.8660 C.3   526  ALA526      0.1694
     74  C          2.6610    2.7940   37.6350 C.2   526  ALA526      0.2591
     75  O          1.8850    1.8530   37.4100 O.2   526  ALA526     -0.2718
     76  CB         3.0010    3.7270   39.9460 C.3   526  ALA526      0.0304
     77  N          2.7890    3.8460   36.8340 N.am  527  LEU527     -0.1980
     78  CA         1.9950    4.0020   35.6290 C.3   527  LEU527      0.1596
     79  C          2.1990    2.8650   34.6330 C.2   527  LEU527      0.2287
     80  O          1.2240    2.3280   34.1000 O.2   527  LEU527     -0.2864
     81  CB         2.3250    5.3390   34.9810 C.3   527  LEU527      0.0297
     82  CG         1.3830    5.7880   33.8730 C.3   527  LEU527      0.0022
     83  CD1       -0.0620    5.5120   34.2550 C.3   527  LEU527      0.0001
     84  CD2        1.6150    7.2660   33.6160 C.3   527  LEU527      0.0001
     85  N          0.6170   -0.0150   35.8990 N.3   530  LEU530     -0.1245
     86  CA        -0.8290    0.1400   35.8140 C.3   530  LEU530      0.1561
     87  C         -1.2710   -0.3600   34.4470 C.2   530  LEU530      0.2260
     88  O         -2.1120   -1.2530   34.3390 O.2   530  LEU530     -0.2867
     89  CB        -1.2430    1.6040   35.9870 C.3   530  LEU530      0.0270
     90  CG        -2.7420    1.8710   35.8030 C.3   530  LEU530      0.0019
     91  CD1       -3.5560    0.7910   36.4870 C.3   530  LEU530      0.0001
     92  CD2       -3.0920    3.2340   36.3650 C.3   530  LEU530      0.0001
     93  N         -1.1660   -3.9680   33.8880 N.3   533  HIS533     -0.1226
     94  CA        -2.1960   -4.6850   34.6220 C.3   533  HIS533      0.1752
     95  C         -3.5590   -4.5630   33.9440 C.2   533  HIS533      0.2595
     96  O         -4.3950   -5.4600   34.0300 O.2   533  HIS533     -0.2718
     97  CB        -2.2650   -4.1650   36.0570 C.3   533  HIS533      0.0759
     98  CG        -3.3870   -4.7500   36.8570 C.ar  533  HIS533      0.0818
     99  ND1       -3.6280   -6.1060   36.9190 N.ar  533  HIS533     -0.2268
    100  CD2       -4.3430   -4.1620   37.6160 C.ar  533  HIS533      0.1154
    101  CE1       -4.6870   -6.3260   37.6800 C.ar  533  HIS533      0.1986
    102  NE2       -5.1390   -5.1630   38.1150 N.ar  533  HIS533     -0.2212
    103  N         -3.7830   -3.4450   33.2700 N.am  534  LYS534     -0.1980
    104  CA        -5.0330   -3.2410   32.5710 C.3   534  LYS534      0.1596
    105  C         -4.7670   -2.4300   31.3120 C.2   534  LYS534      0.2287
    106  O         -5.0560   -1.2440   31.2350 O.2   534  LYS534     -0.2864
    107  CB        -6.0400   -2.5720   33.5090 C.3   534  LYS534      0.0298
    108  CG        -6.3350   -3.4680   34.7220 C.3   534  LYS534      0.0038
    109  CD        -7.6810   -3.2130   35.3870 C.3   534  LYS534      0.0206
    110  CE        -7.9320   -4.2680   36.4750 C.3   534  LYS534      0.1093
    111  NZ        -9.1900   -4.0560   37.2730 N.3   534  LYS534     -0.1314
    112  N         -7.8280    7.9190   36.8440 N.3   545  VAL545     -0.1231
    113  CA        -7.0750    7.2680   37.8980 C.3   545  VAL545      0.1692
    114  C         -5.8330    8.1070   38.1980 C.2   545  VAL545      0.2591
    115  O         -5.4430    8.2520   39.3490 O.2   545  VAL545     -0.2718
    116  CB        -6.6570    5.8420   37.4840 C.3   545  VAL545      0.0266
    117  CG1       -5.6700    5.2770   38.4880 C.3   545  VAL545      0.0020
    118  CG2       -7.8890    4.9460   37.3900 C.3   545  VAL545      0.0020
    119  N         -5.2200    8.6720   37.1650 N.am  546  MET546     -0.1979
    120  CA        -4.0320    9.4800   37.3710 C.3   546  MET546      0.1605
    121  C         -4.3460   10.7130   38.1900 C.2   546  MET546      0.2287
    122  O         -3.6130   11.0470   39.1150 O.2   546  MET546     -0.2864
    123  CB        -3.4120    9.8950   36.0390 C.3   546  MET546      0.0413
    124  CG        -2.7620    8.7570   35.2820 C.3   546  MET546      0.0598
    125  SD        -1.6860    9.3390   33.9550 S.3   546  MET546     -0.1393
    126  CE        -2.8820   10.1220   32.8690 C.3   546  MET546      0.0692
    127  N         -4.8310   10.2290   41.6270 N.3   549  PHE549     -0.1227
    128  CA        -3.5460    9.9340   42.2370 C.3   549  PHE549      0.1736
    129  C         -2.8510   11.2420   42.6130 C.2   549  PHE549      0.2595
    130  O         -2.3500   11.3890   43.7280 O.2   549  PHE549     -0.2718
    131  CB        -2.6670    9.1320   41.2800 C.3   549  PHE549      0.0547
    132  CG        -1.4260    8.5860   41.9210 C.ar  549  PHE549     -0.0202
    133  CD1       -1.5020    7.5290   42.8180 C.ar  549  PHE549     -0.0042
    134  CD2       -0.1820    9.1460   41.6510 C.ar  549  PHE549     -0.0042
    135  CE1       -0.3520    7.0380   43.4400 C.ar  549  PHE549     -0.0003
    136  CE2        0.9710    8.6640   42.2640 C.ar  549  PHE549     -0.0003
    137  CZ         0.8850    7.6070   43.1620 C.ar  549  PHE549     -0.0000
    138  N         -2.8190   12.1930   41.6860 N.am  550  ALA550     -0.1980
    139  CA        -2.1970   13.4810   41.9650 C.3   550  ALA550      0.1597
    140  C         -2.7680   14.0090   43.2770 C.2   550  ALA550      0.2287
    141  O         -2.0280   14.4510   44.1520 O.2   550  ALA550     -0.2864
    142  CB        -2.4780   14.4640   40.8370 C.3   550  ALA550      0.0319
    143  N         -7.9940    4.6390   47.3580 N.3   573  LEU573     -0.1231
    144  CA        -7.5920    4.8790   45.9770 C.3   573  LEU573      0.1693
    145  C         -7.5240    3.5670   45.2080 C.2   573  LEU573      0.2591
    146  O         -8.1880    3.4020   44.1930 O.2   573  LEU573     -0.2718
    147  CB        -6.2250    5.5580   45.9330 C.3   573  LEU573      0.0284
    148  CG        -5.8380    6.1220   44.5690 C.3   573  LEU573      0.0019
    149  CD1       -6.5920    7.4250   44.3490 C.3   573  LEU573      0.0001
    150  CD2       -4.3380    6.3520   44.5040 C.3   573  LEU573      0.0001
    151  N         -6.7230    2.6320   45.7040 N.am  574  VAL574     -0.1980
    152  CA        -6.5760    1.3440   45.0490 C.3   574  VAL574      0.1595
    153  C         -7.9090    0.6610   44.8380 C.2   574  VAL574      0.2287
    154  O         -8.2260    0.2570   43.7230 O.2   574  VAL574     -0.2864
    155  CB        -5.6750    0.4020   45.8550 C.3   574  VAL574      0.0276
    156  CG1       -5.6630   -0.9810   45.2250 C.3   574  VAL574      0.0022
    157  CG2       -4.2770    0.9680   45.9020 C.3   574  VAL574      0.0022
    158  N        -10.0400    2.7220   42.3790 N.3   577  SER577     -0.1202
    159  CA        -9.4010    2.6130   41.0750 C.3   577  SER577      0.2020
    160  C         -9.6630    1.2960   40.3660 C.2   577  SER577      0.2618
    161  O         -9.9300    1.2840   39.1670 O.2   577  SER577     -0.2717
    162  CB        -7.8950    2.8260   41.2100 C.3   577  SER577      0.2103
    163  OG        -7.5980    4.1900   41.4440 O.3   577  SER577     -0.2182
    164  N         -9.5840    0.1880   41.0930 N.am  578  GLN578     -0.1979
    165  CA        -9.8210   -1.1130   40.4850 C.3   578  GLN578      0.1601
    166  C        -11.2440   -1.1950   39.9750 C.2   578  GLN578      0.2287
    167  O        -11.5000   -1.7240   38.8970 O.2   578  GLN578     -0.2864
    168  CB        -9.5960   -2.2290   41.4940 C.3   578  GLN578      0.0394
    169  CG        -8.1680   -2.3750   41.9530 C.3   578  GLN578      0.0908
    170  CD        -8.0110   -3.5110   42.9320 C.2   578  GLN578      0.2608
    171  OE1       -8.1880   -4.6800   42.5790 O.2   578  GLN578     -0.2717
    172  NE2       -7.6900   -3.1760   44.1810 N.am  578  GLN578     -0.0878
    173  N        -11.6380    0.5930   36.7100 N.3   581  LEU581     -0.1245
    174  CA       -10.9630   -0.0970   35.6200 C.3   581  LEU581      0.1561
    175  C        -11.5220   -1.4960   35.4090 C.2   581  LEU581      0.2260
    176  O        -10.8720   -2.3530   34.8130 O.2   581  LEU581     -0.2867
    177  CB        -9.4650   -0.1610   35.9060 C.3   581  LEU581      0.0270
    178  CG        -8.8390    1.2010   36.2300 C.3   581  LEU581      0.0019
    179  CD1       -7.3700    1.0190   36.5350 C.3   581  LEU581      0.0001
    180  CD2       -9.0390    2.1700   35.0650 C.3   581  LEU581      0.0001
@<TRIPOS>BOND
     1    16    15    2
     2    24    25    2
     3    24    23    1
     4    15    14    1
     5    22    23    1
     6    23    26    1
     7    14    17    1
     8    14    13    1
     9     1     2    1
    10   106   105    2
    11    17    18    1
    12   105   104    1
    13    13     3   am
    14     4     3    2
    15    26    27    1
    16     3     2    1
    17     2     5    1
    18    20    21    1
    19    20    19    1
    20   104   103    1
    21   104   107    1
    22    18    19    1
    23   126   125    1
    24    27    28    2
    25    27    29   am
    26   103    95   am
    27   107   108    1
    28     5     6    1
    29    84    82    1
    30    82    83    1
    31    82    81    1
    32    93    94    1
    33    95    96    2
    34    95    94    1
    35   125   124    1
    36    80    79    2
    37    88    87    2
    38    87    86    1
    39     6     7   ar
    40     6     8   ar
    41    94    97    1
    42    79    78    1
    43   108   109    1
    44   176   175    2
    45     7     9   ar
    46    81    78    1
    47   180   178    1
    48     8    10   ar
    49   124   123    1
    50   109   110    1
    51   175   174    1
    52   174   177    1
    53   174   173    1
    54    78    77    1
    55    90    89    1
    56    90    92    1
    57    90    91    1
    58    86    85    1
    59    86    89    1
    60     9    11   ar
    61   177   178    1
    62   123   120    1
    63    97    98    1
    64    10    11   ar
    65   178   179    1
    66    11    12    1
    67   110   111    1
    68    77    74   am
    69   112   113    1
    70    98    99   ar
    71    98   100   ar
    72    99   101   ar
    73   119   120    1
    74   119   114   am
    75   120   121    1
    76   118   116    1
    77    75    74    2
    78   116   113    1
    79   116   117    1
    80   100   102   ar
    81    74    73    1
    82   101   102   ar
    83   113   114    1
    84    66    65    2
    85   121   122    2
    86   114   115    2
    87    65    64    1
    88    72    73    1
    89    73    76    1
    90   167   166    2
    91   161   160    2
    92    51    49   ar
    93    51    50   ar
    94    30    31    1
    95    67    64    1
    96    67    68    1
    97    49    47   ar
    98    64    63    1
    99   166   165    1
   100    50    48   ar
   101   160   159    1
   102   160   164   am
   103    31    34    1
   104    31    32    1
   105    69    68    1
   106    69    70    1
   107   165   164    1
   108   165   168    1
   109   142   139    1
   110    47    46   ar
   111   159   162    1
   112   159   158    1
   113    71    70    1
   114    34    35    1
   115   162   163    1
   116   131   132    1
   117   131   128    1
   118    36    35   ar
   119    36    38   ar
   120    48    46   ar
   121   168   169    1
   122    32    33    2
   123   127   128    1
   124   134   132   ar
   125   134   136   ar
   126   138   139    1
   127   138   129   am
   128    46    45    1
   129   132   133   ar
   130   169   170    1
   131   139   140    1
   132    35    37   ar
   133   128   129    1
   134    38    40   ar
   135   136   137   ar
   136   171   170    2
   137   129   130    2
   138   133   135   ar
   139   170   172   am
   140   137   135   ar
   141   140   141    2
   142    45    42    1
   143    37    39   ar
   144    40    39   ar
   145    62    61   ar
   146    62    60   ar
   147   154   153    2
   148    41    42    1
   149    42    43    1
   150    61    59   ar
   151   146   145    2
   152   149   148    1
   153   150   148    1
   154   148   147    1
   155    60    58   ar
   156   153   152    1
   157   152   151    1
   158   152   155    1
   159   145   151   am
   160   145   144    1
   161   156   155    1
   162    59    57   ar
   163    43    44    2
   164   155   157    1
   165   147   144    1
   166   144   143    1
   167    58    57   ar
   168    57    56    1
   169    56    53    1
   170    52    53    1
   171    53    54    1
   172    54    55    2
