@<TRIPOS>MOLECULE
tmp/1ha2A06.pdb
 165 157 0 0 0
SMALL
GASTEIGER

@<TRIPOS>ATOM
      1  N         27.0820    7.8350   19.4240 N.3   193  LYS193     -0.1245
      2  CA        27.1130    8.1190   17.9850 C.3   193  LYS193      0.1561
      3  C         28.3530    7.5640   17.3090 C.2   193  LYS193      0.2260
      4  O         28.3130    7.2170   16.1290 O.2   193  LYS193     -0.2867
      5  CB        27.1000    9.6180   17.7060 C.3   193  LYS193      0.0271
      6  CG        25.8660   10.3730   18.1170 C.3   193  LYS193      0.0035
      7  CD        25.9550   11.7700   17.5230 C.3   193  LYS193      0.0206
      8  CE        24.7760   12.6370   17.8780 C.3   193  LYS193      0.1093
      9  NZ        24.8370   13.8930   17.0810 N.3   193  LYS193     -0.1314
     10  N         28.0820    4.7440   14.3140 N.3   197  LYS197     -0.1245
     11  CA        28.6870    4.8770   12.9980 C.3   197  LYS197      0.1561
     12  C         29.6570    3.7390   12.7170 C.2   197  LYS197      0.2260
     13  O         29.8220    3.3250   11.5720 O.2   197  LYS197     -0.2867
     14  CB        29.4090    6.2230   12.8800 C.3   197  LYS197      0.0271
     15  CG        28.5070    7.4060   12.9140 C.3   197  LYS197      0.0035
     16  CD        27.7290    7.5990   11.6490 C.3   197  LYS197      0.0206
     17  CE        26.8210    8.8520   11.7230 C.3   197  LYS197      0.1093
     18  NZ        25.5870    8.6600   12.4970 N.3   197  LYS197     -0.1314
     19  N         27.2950    3.4300    4.0200 N.3   209  PHE209     -0.1241
     20  CA        27.9620    4.4980    4.7170 C.3   209  PHE209      0.1605
     21  C         28.1390    5.7030    3.7910 C.2   209  PHE209      0.2264
     22  O         27.8040    6.8320    4.1470 O.2   209  PHE209     -0.2867
     23  CB        29.3200    4.0130    5.2130 C.3   209  PHE209      0.0534
     24  CG        30.0390    5.0130    6.0460 C.ar  209  PHE209     -0.0203
     25  CD1       29.7670    5.1240    7.4080 C.ar  209  PHE209     -0.0042
     26  CD2       30.9750    5.8610    5.4710 C.ar  209  PHE209     -0.0042
     27  CE1       30.4270    6.0720    8.1900 C.ar  209  PHE209     -0.0003
     28  CE2       31.6420    6.8140    6.2360 C.ar  209  PHE209     -0.0003
     29  CZ        31.3690    6.9200    7.6010 C.ar  209  PHE209     -0.0000
     30  N         24.9860    7.5580    3.2130 N.3   212  TRP212     -0.1227
     31  CA        24.6800    8.3990    4.3520 C.3   212  TRP212      0.1737
     32  C         25.5510    9.6660    4.2940 C.2   212  TRP212      0.2595
     33  O         25.0670   10.7750    4.4930 O.2   212  TRP212     -0.2718
     34  CB        24.9720    7.6290    5.6420 C.3   212  TRP212      0.0564
     35  CG        24.4160    8.2670    6.8660 C.ar  212  TRP212      0.0003
     36  CD1       23.1950    8.0440    7.4020 C.ar  212  TRP212      0.0946
     37  CD2       25.0330    9.2850    7.6700 C.ar  212  TRP212      0.0152
     38  NE1       22.9970    8.8620    8.4900 N.ar  212  TRP212     -0.2442
     39  CE2       24.1100    9.6360    8.6760 C.ar  212  TRP212      0.0810
     40  CE3       26.2790    9.9370    7.6350 C.ar  212  TRP212      0.0012
     41  CZ2       24.3810   10.6150    9.6470 C.ar  212  TRP212      0.0191
     42  CZ3       26.5550   10.9150    8.5980 C.ar  212  TRP212      0.0001
     43  CH2       25.6050   11.2430    9.5900 C.ar  212  TRP212      0.0015
     44  N         26.8380    9.4860    4.0170 N.am  213  ALA213     -0.1980
     45  CA        27.7880   10.5880    3.9480 C.3   213  ALA213      0.1597
     46  C         27.4970   11.5770    2.8070 C.2   213  ALA213      0.2287
     47  O         27.6010   12.7910    2.9900 O.2   213  ALA213     -0.2864
     48  CB        29.2080   10.0320    3.8260 C.3   213  ALA213      0.0319
     49  N         24.4430   13.5890    3.8730 N.3   216  ARG216     -0.1231
     50  CA        24.7740   14.5090    4.9450 C.3   216  ARG216      0.1694
     51  C         25.6770   15.6440    4.4970 C.2   216  ARG216      0.2591
     52  O         25.4520   16.7860    4.8700 O.2   216  ARG216     -0.2718
     53  CB        25.4380   13.7810    6.1170 C.3   216  ARG216      0.0321
     54  CG        25.6490   14.6880    7.3260 C.3   216  ARG216      0.0489
     55  CD        24.3220   15.0570    7.9750 C.3   216  ARG216      0.2205
     56  NE        24.4230   16.2160    8.8570 N.pl3 216  ARG216     -0.0865
     57  CZ        24.4080   17.4850    8.4430 C.cat 216  ARG216      0.5346
     58  NH1       24.2920   17.7690    7.1530 N.pl3 216  ARG216      0.1354
     59  NH2       24.5100   18.4750    9.3200 N.pl3 216  ARG216      0.1354
     60  N         26.6940   15.3510    3.6970 N.am  217  LEU217     -0.1980
     61  CA        27.5970   16.4180    3.2850 C.3   217  LEU217      0.1596
     62  C         27.0010   17.3340    2.2450 C.2   217  LEU217      0.2287
     63  O         27.4260   18.4730    2.0870 O.2   217  LEU217     -0.2864
     64  CB        28.9160   15.8540    2.7640 C.3   217  LEU217      0.0297
     65  CG        29.7570   15.0690    3.7710 C.3   217  LEU217      0.0022
     66  CD1       31.1750   15.0090    3.2580 C.3   217  LEU217      0.0001
     67  CD2       29.7240   15.7250    5.1300 C.3   217  LEU217      0.0001
     68  N         25.0090   19.8670    4.1200 N.3   220  ARG220     -0.1231
     69  CA        25.9900   20.7270    4.7630 C.3   220  ARG220      0.1694
     70  C         26.7000   21.6460    3.7630 C.2   220  ARG220      0.2592
     71  O         26.8350   22.8460    4.0010 O.2   220  ARG220     -0.2718
     72  CB        27.0240   19.8810    5.5260 C.3   220  ARG220      0.0321
     73  CG        27.6700   20.6390    6.6870 C.3   220  ARG220      0.0489
     74  CD        28.9030   19.9520    7.3250 C.3   220  ARG220      0.2205
     75  NE        28.6230   18.9020    8.3160 N.pl3 220  ARG220     -0.0865
     76  CZ        27.7140   18.9810    9.2880 C.cat 220  ARG220      0.5346
     77  NH1       26.9530   20.0610    9.4260 N.pl3 220  ARG220      0.1354
     78  NH2       27.5790   17.9780   10.1450 N.pl3 220  ARG220      0.1354
     79  N         27.1430   21.0940    2.6430 N.am  221  PHE221     -0.1976
     80  CA        27.8550   21.8960    1.6580 C.3   221  PHE221      0.1639
     81  C         27.1590   21.8840    0.3160 C.2   221  PHE221      0.2290
     82  O         27.6780   21.3320   -0.6470 O.2   221  PHE221     -0.2864
     83  CB        29.2640   21.3630    1.4620 C.3   221  PHE221      0.0560
     84  CG        29.9960   21.0860    2.7330 C.ar  221  PHE221     -0.0200
     85  CD1       29.9890   22.0090    3.7720 C.ar  221  PHE221     -0.0042
     86  CD2       30.7470   19.9190    2.8660 C.ar  221  PHE221     -0.0042
     87  CE1       30.7240   21.7830    4.9260 C.ar  221  PHE221     -0.0003
     88  CE2       31.4880   19.6810    4.0130 C.ar  221  PHE221     -0.0003
     89  CZ        31.4770   20.6190    5.0500 C.ar  221  PHE221     -0.0000
     90  N         36.3940   10.4780    4.0370 N.3   236  LEU236     -0.1245
     91  CA        35.6960   10.2840    5.2950 C.3   236  LEU236      0.1561
     92  C         35.5040    8.8010    5.5540 C.2   236  LEU236      0.2260
     93  O         35.5540    8.3470    6.6980 O.2   236  LEU236     -0.2867
     94  CB        34.3360   10.9820    5.2650 C.3   236  LEU236      0.0270
     95  CG        34.3650   12.4510    5.6810 C.3   236  LEU236      0.0019
     96  CD1       32.9950   13.0870    5.4910 C.3   236  LEU236      0.0001
     97  CD2       34.8010   12.5340    7.1410 C.3   236  LEU236      0.0001
     98  N         38.8120    7.5140    6.6810 N.3   239  VAL239     -0.1231
     99  CA        39.0110    8.0670    8.0130 C.3   239  VAL239      0.1692
    100  C         38.2790    7.2820    9.0830 C.2   239  VAL239      0.2592
    101  O         38.8800    6.8820   10.0730 O.2   239  VAL239     -0.2718
    102  CB        38.5600    9.5610    8.0860 C.3   239  VAL239      0.0266
    103  CG1       38.3940    9.9960    9.5210 C.3   239  VAL239      0.0020
    104  CG2       39.5920   10.4470    7.4280 C.3   239  VAL239      0.0020
    105  N         36.9890    7.0430    8.8910 N.am  240  HIS240     -0.1976
    106  CA        36.2260    6.3240    9.9010 C.3   240  HIS240      0.1656
    107  C         36.5300    4.8450   10.0350 C.2   240  HIS240      0.2291
    108  O         36.4420    4.2910   11.1260 O.2   240  HIS240     -0.2864
    109  CB        34.7420    6.5790    9.6890 C.3   240  HIS240      0.0771
    110  CG        34.3250    7.9350   10.1540 C.ar  240  HIS240      0.0820
    111  ND1       34.1630    8.2390   11.4880 N.ar  240  HIS240     -0.2267
    112  CD2       34.1560    9.0980    9.4800 C.ar  240  HIS240      0.1154
    113  CE1       33.9150    9.5300   11.6180 C.ar  240  HIS240      0.1986
    114  NE2       33.9060   10.0750   10.4140 N.ar  240  HIS240     -0.2212
    115  N         42.3330   12.4030    9.9420 N.3   255  ARG255     -0.1245
    116  CA        41.4550   13.5080   10.2830 C.3   255  ARG255      0.1563
    117  C         42.1640   14.8420   10.1000 C.2   255  ARG255      0.2260
    118  O         41.5680   15.8230    9.6610 O.2   255  ARG255     -0.2867
    119  CB        40.9650   13.3710   11.7280 C.3   255  ARG255      0.0307
    120  CG        40.0880   12.1660   11.9520 C.3   255  ARG255      0.0489
    121  CD        39.4920   12.1740   13.3310 C.3   255  ARG255      0.2205
    122  NE        38.9570   13.4850   13.6660 N.pl3 255  ARG255     -0.0865
    123  CZ        37.7220   13.7120   14.1100 C.cat 255  ARG255      0.5346
    124  NH1       36.8670   12.7090   14.2690 N.pl3 255  ARG255      0.1354
    125  NH2       37.3500   14.9500   14.4200 N.pl3 255  ARG255      0.1354
    126  N         42.4740   15.5500    6.2950 N.3   258  LEU258     -0.1231
    127  CA        41.1740   15.9330    5.7870 C.3   258  LEU258      0.1693
    128  C         40.8260   17.3660    6.1600 C.2   258  LEU258      0.2591
    129  O         40.3700   18.1400    5.3240 O.2   258  LEU258     -0.2718
    130  CB        40.1140   14.9800    6.3220 C.3   258  LEU258      0.0284
    131  CG        38.7260   15.1520    5.7140 C.3   258  LEU258      0.0019
    132  CD1       38.8210   15.1740    4.1830 C.3   258  LEU258      0.0001
    133  CD2       37.8430   14.0160    6.1920 C.3   258  LEU258      0.0001
    134  N         41.0450   17.7210    7.4180 N.am  259  ALA259     -0.1980
    135  CA        40.7480   19.0680    7.8820 C.3   259  ALA259      0.1597
    136  C         41.5680   20.0760    7.0780 C.2   259  ALA259      0.2287
    137  O         41.0710   21.1330    6.6720 O.2   259  ALA259     -0.2864
    138  CB        41.0650   19.1850    9.3610 C.3   259  ALA259      0.0319
    139  N         40.2260   20.3220    3.4380 N.3   262  ILE262     -0.1245
    140  CA        39.0120   21.1130    3.3830 C.3   262  ILE262      0.1561
    141  C         39.2730   22.6000    3.4800 C.2   262  ILE262      0.2260
    142  O         38.7010   23.3800    2.7270 O.2   262  ILE262     -0.2867
    143  CB        38.0490   20.6990    4.4990 C.3   262  ILE262      0.0252
    144  CG1       37.5950   19.2640    4.2540 C.3   262  ILE262      0.0019
    145  CG2       36.8620   21.6480    4.5640 C.3   262  ILE262      0.0019
    146  CD1       36.6700   18.7410    5.3110 C.3   262  ILE262      0.0001
    147  N         39.1680   19.6820   12.7040 N.3   285  SER285     -0.1217
    148  CA        38.2600   18.6030   12.3320 C.3   285  SER285      0.1889
    149  C         36.9950   18.5510   13.1950 C.2   285  SER285      0.2288
    150  O         35.8960   18.3470   12.6790 O.2   285  SER285     -0.2866
    151  CB        38.9970   17.2560   12.3910 C.3   285  SER285      0.2089
    152  OG        39.3330   16.9140   13.7220 O.3   285  SER285     -0.2183
    153  N         34.8800   21.4750   12.1420 N.3   288  ILE288     -0.1231
    154  CA        34.3610   21.1820   10.8360 C.3   288  ILE288      0.1692
    155  C         33.2220   20.1680   10.8720 C.2   288  ILE288      0.2591
    156  O         32.1920   20.3560   10.2140 O.2   288  ILE288     -0.2718
    157  CB        35.4880   20.6680    9.9320 C.3   288  ILE288      0.0266
    158  CG1       36.4880   21.7980    9.6800 C.3   288  ILE288      0.0019
    159  CG2       34.9160   20.1280    8.6290 C.3   288  ILE288      0.0020
    160  CD1       37.5670   21.4510    8.6870 C.3   288  ILE288      0.0001
    161  N         33.3940   19.1010   11.6430 N.am  289  ALA289     -0.1980
    162  CA        32.3680   18.0690   11.7190 C.3   289  ALA289      0.1597
    163  C         31.0500   18.6170   12.2120 C.2   289  ALA289      0.2287
    164  O         29.9920   18.0840   11.8950 O.2   289  ALA289     -0.2864
    165  CB        32.8190   16.9380   12.6380 C.3   289  ALA289      0.0319
@<TRIPOS>BOND
     1    82    81    2
     2    81    80    1
     3    83    80    1
     4    83    84    1
     5    80    79    1
     6    63    62    2
     7    62    61    1
     8    79    70   am
     9   142   141    2
    10    84    86   ar
    11    84    85   ar
    12    64    61    1
    13    64    65    1
    14    46    47    2
    15    46    45    1
    16    86    88   ar
    17    30    31    1
    18    66    65    1
    19    61    60    1
    20   140   139    1
    21   140   141    1
    22   140   143    1
    23    60    51   am
    24    70    71    2
    25    70    69    1
    26    65    67    1
    27    85    87   ar
    28    21    22    2
    29    21    20    1
    30    48    45    1
    31    49    50    1
    32    45    44    1
    33    88    89   ar
    34    44    32   am
    35    19    20    1
    36    90    91    1
    37    68    69    1
    38   132   131    1
    39   144   143    1
    40   144   146    1
    41    32    31    1
    42    32    33    2
    43    31    34    1
    44    51    52    2
    45    51    50    1
    46   143   145    1
    47    20    23    1
    48    69    72    1
    49    87    89   ar
    50    50    53    1
    51    23    24    1
    52    94    91    1
    53    94    95    1
    54    91    92    1
    55   129   128    2
    56    26    24   ar
    57    26    28   ar
    58    96    95    1
    59    72    73    1
    60    92    93    2
    61    34    35    1
    62    95    97    1
    63   131   133    1
    64   131   130    1
    65   127   128    1
    66   127   126    1
    67   127   130    1
    68    24    25   ar
    69    53    54    1
    70   128   134   am
    71    28    29   ar
    72   137   136    2
    73    98    99    1
    74    73    74    1
    75    35    36   ar
    76    35    37   ar
    77   136   135    1
    78    58    57    1
    79    74    75    1
    80    54    55    1
    81    36    38   ar
    82    25    27   ar
    83   134   135    1
    84   104   102    1
    85    29    27   ar
    86    40    37   ar
    87    40    42   ar
    88    37    39   ar
    89   135   138    1
    90    55    56    1
    91    99   102    1
    92    99   100    1
    93   102   103    1
    94    75    76    2
    95    57    56    2
    96    57    59    1
    97    38    39   ar
    98    42    43   ar
    99   159   157    1
   100    39    41   ar
   101   160   158    1
   102   105   100   am
   103   105   106    1
   104   100   101    2
   105    76    77    1
   106    76    78    1
   107   112   110   ar
   108   112   114   ar
   109    43    41   ar
   110   118   117    2
   111   158   157    1
   112   109   106    1
   113   109   110    1
   114   106   107    1
   115   157   154    1
   116   115   116    1
   117   107   108    2
   118   117   116    1
   119   110   111   ar
   120   156   155    2
   121   116   119    1
   122   114   113   ar
   123   154   155    1
   124   154   153    1
   125   155   161   am
   126   111   113   ar
   127    13    12    2
   128   161   162    1
   129    16    17    1
   130    16    15    1
   131   162   163    1
   132   162   165    1
   133    17    18    1
   134   119   120    1
   135   164   163    2
   136   120   121    1
   137   148   151    1
   138   148   147    1
   139   148   149    1
   140   151   152    1
   141   150   149    2
   142    12    11    1
   143    14    15    1
   144    14    11    1
   145    11    10    1
   146   121   122    1
   147   122   123    2
   148   123   124    1
   149   123   125    1
   150     4     3    2
   151     9     8    1
   152     3     2    1
   153     7     8    1
   154     7     6    1
   155     5     2    1
   156     5     6    1
   157     2     1    1
