@<TRIPOS>MOLECULE
tmp/1ha2A03.pdb
 169 156 0 0 0
SMALL
GASTEIGER

@<TRIPOS>ATOM
      1  N          4.5540   12.9970   11.9630 N.3   385  LEU385     -0.1245
      2  CA         4.9090   12.5500   13.3060 C.3   385  LEU385      0.1561
      3  C          5.5060   13.6920   14.1280 C.2   385  LEU385      0.2260
      4  O          5.2540   13.7840   15.3180 O.2   385  LEU385     -0.2867
      5  CB         5.9030   11.3930   13.2450 C.3   385  LEU385      0.0270
      6  CG         5.2930   10.0790   12.7720 C.3   385  LEU385      0.0019
      7  CD1        6.3510    8.9710   12.7580 C.3   385  LEU385      0.0001
      8  CD2        4.1410    9.7220   13.7020 C.3   385  LEU385      0.0001
      9  N          3.5390   15.1470   17.2970 N.3   389  ASN389     -0.1240
     10  CA         4.1900   14.9570   18.5820 C.3   389  ASN389      0.1653
     11  C          4.6480   16.2580   19.2300 C.2   389  ASN389      0.2266
     12  O          4.6430   16.3750   20.4590 O.2   389  ASN389     -0.2867
     13  CB         5.3560   13.9690   18.4490 C.3   389  ASN389      0.1155
     14  CG         4.9030   12.5230   18.5630 C.2   389  ASN389      0.2627
     15  OD1        4.4770   12.0710   19.6290 O.2   389  ASN389     -0.2716
     16  ND2        4.9790   11.7960   17.4640 N.am  389  ASN389     -0.0877
     17  N          1.5640    4.9710   25.7180 N.3   408  ARG408     -0.1231
     18  CA         1.6380    4.5800   24.3200 C.3   408  ARG408      0.1694
     19  C          2.5560    3.4000   24.0140 C.2   408  ARG408      0.2592
     20  O          2.1890    2.5220   23.2450 O.2   408  ARG408     -0.2718
     21  CB         2.0720    5.7810   23.4860 C.3   408  ARG408      0.0321
     22  CG         1.9090    5.5870   21.9910 C.3   408  ARG408      0.0489
     23  CD         1.7590    6.9300   21.2940 C.3   408  ARG408      0.2205
     24  NE         3.0490    7.5180   20.9770 N.pl3 408  ARG408     -0.0865
     25  CZ         3.2440    8.8140   20.7660 C.cat 408  ARG408      0.5346
     26  NH1        2.2230    9.6590   20.8490 N.pl3 408  ARG408      0.1354
     27  NH2        4.4570    9.2630   20.4510 N.pl3 408  ARG408      0.1354
     28  N          3.7400    3.3670   24.6100 N.am  409  TYR409     -0.1976
     29  CA         4.6660    2.2770   24.3350 C.3   409  TYR409      0.1639
     30  C          4.4870    1.0460   25.2120 C.2   409  TYR409      0.2290
     31  O          4.8630   -0.0570   24.8300 O.2   409  TYR409     -0.2864
     32  CB         6.1090    2.7890   24.4080 C.3   409  TYR409      0.0560
     33  CG         6.3510    3.8830   23.4040 C.ar  409  TYR409     -0.0198
     34  CD1        6.0870    3.6670   22.0460 C.ar  409  TYR409     -0.0009
     35  CD2        6.7790    5.1520   23.8060 C.ar  409  TYR409     -0.0009
     36  CE1        6.2350    4.6880   21.1090 C.ar  409  TYR409      0.0417
     37  CE2        6.9350    6.1810   22.8820 C.ar  409  TYR409      0.0417
     38  CZ         6.6590    5.9400   21.5340 C.ar  409  TYR409      0.1957
     39  OH         6.8060    6.9440   20.6060 O.3   409  TYR409     -0.2866
     40  N          2.1760   -1.0570   23.3500 N.3   412  LYS412     -0.1231
     41  CA         2.6980   -1.6320   22.1200 C.3   412  LYS412      0.1693
     42  C          3.5970   -2.8220   22.4000 C.2   412  LYS412      0.2591
     43  O          3.5920   -3.7900   21.6470 O.2   412  LYS412     -0.2718
     44  CB         3.4710   -0.5750   21.3370 C.3   412  LYS412      0.0285
     45  CG         2.7060    0.7120   21.2000 C.3   412  LYS412      0.0035
     46  CD         2.2680    0.9910   19.7860 C.3   412  LYS412      0.0206
     47  CE         3.0990    2.1050   19.1830 C.3   412  LYS412      0.1093
     48  NZ         2.5860    2.4940   17.8470 N.3   412  LYS412     -0.1314
     49  N          4.3640   -2.7470   23.4830 N.am  413  VAL413     -0.1980
     50  CA         5.2810   -3.8210   23.8550 C.3   413  VAL413      0.1595
     51  C          5.2740   -3.9700   25.3750 C.2   413  VAL413      0.2287
     52  O          6.2180   -3.5940   26.0640 O.2   413  VAL413     -0.2864
     53  CB         6.7120   -3.5210   23.3470 C.3   413  VAL413      0.0276
     54  CG1        6.7100   -3.4040   21.8400 C.3   413  VAL413      0.0022
     55  CG2        7.2050   -2.2270   23.9290 C.3   413  VAL413      0.0022
     56  N          8.1080   -5.6580   27.6010 N.3   416  VAL416     -0.1245
     57  CA         9.3290   -5.0070   28.0350 C.3   416  VAL416      0.1561
     58  C          9.3690   -4.6570   29.5000 C.2   416  VAL416      0.2260
     59  O          8.3480   -4.3790   30.1300 O.2   416  VAL416     -0.2867
     60  CB         9.6110   -3.7220   27.2450 C.3   416  VAL416      0.0252
     61  CG1       10.9500   -3.1270   27.6950 C.3   416  VAL416      0.0019
     62  CG2        9.6310   -4.0260   25.7610 C.3   416  VAL416      0.0019
     63  N         12.9520   -0.2560   31.8290 N.3   420  THR420     -0.1203
     64  CA        13.4550    0.0000   30.4790 C.3   420  THR420      0.1994
     65  C         12.4900    0.9650   29.7890 C.2   420  THR420      0.2617
     66  O         12.9070    1.9500   29.1680 O.2   420  THR420     -0.2717
     67  CB        13.5280   -1.2970   29.6490 C.3   420  THR420      0.1784
     68  OG1       14.3060   -2.2770   30.3460 O.3   420  THR420     -0.2211
     69  CG2       14.1740   -1.0290   28.3110 C.3   420  THR420      0.0376
     70  N         11.1970    0.6670   29.9130 N.am  421  LEU421     -0.1979
     71  CA        10.1470    1.4900   29.3350 C.3   421  LEU421      0.1596
     72  C         10.2110    2.9000   29.9030 C.2   421  LEU421      0.2287
     73  O         10.0780    3.8870   29.1700 O.2   421  LEU421     -0.2864
     74  CB         8.7660    0.8930   29.6400 C.3   421  LEU421      0.0297
     75  CG         8.2030   -0.1570   28.6790 C.3   421  LEU421      0.0022
     76  CD1        6.9550   -0.8120   29.2640 C.3   421  LEU421      0.0001
     77  CD2        7.8890    0.5160   27.3590 C.3   421  LEU421      0.0001
     78  N         13.4710    4.7450   28.4220 N.3   424  VAL424     -0.1245
     79  CA        13.2560    4.9960   27.0050 C.3   424  VAL424      0.1561
     80  C         12.2220    6.0940   26.7930 C.2   424  VAL424      0.2260
     81  O         12.4340    7.0020   25.9950 O.2   424  VAL424     -0.2867
     82  CB        12.7940    3.7140   26.2890 C.3   424  VAL424      0.0252
     83  CG1       12.4950    3.9980   24.8350 C.3   424  VAL424      0.0019
     84  CG2       13.8780    2.6580   26.3850 C.3   424  VAL424      0.0019
     85  N         12.9980    9.7380   25.2330 N.3   428  LEU428     -0.1245
     86  CA        12.1780   10.0840   24.0830 C.3   428  LEU428      0.1561
     87  C         11.5380   11.4410   24.3430 C.2   428  LEU428      0.2260
     88  O         11.3990   12.2610   23.4400 O.2   428  LEU428     -0.2867
     89  CB        11.0930    9.0320   23.8920 C.3   428  LEU428      0.0270
     90  CG        11.0620    8.3040   22.5530 C.3   428  LEU428      0.0019
     91  CD1       12.4520    8.2360   21.9510 C.3   428  LEU428      0.0001
     92  CD2       10.4910    6.9180   22.7780 C.3   428  LEU428      0.0001
     93  N         17.1680   10.6500   18.1050 N.3   451  LEU451     -0.1245
     94  CA        16.4490    9.3920   18.0360 C.3   451  LEU451      0.1561
     95  C         17.3490    8.2240   17.6790 C.2   451  LEU451      0.2260
     96  O         17.1270    7.1050   18.1280 O.2   451  LEU451     -0.2867
     97  CB        15.3170    9.5180   17.0240 C.3   451  LEU451      0.0270
     98  CG        13.9580    8.9830   17.4390 C.3   451  LEU451      0.0019
     99  CD1       13.7080    9.2080   18.9340 C.3   451  LEU451      0.0001
    100  CD2       12.9120    9.6900   16.6060 C.3   451  LEU451      0.0001
    101  N         17.3360    4.9640   19.9280 N.3   455  LEU455     -0.1245
    102  CA        16.8770    3.7190   19.3360 C.3   455  LEU455      0.1561
    103  C         17.9560    2.6740   19.3900 C.2   455  LEU455      0.2260
    104  O         17.6940    1.5110   19.6690 O.2   455  LEU455     -0.2867
    105  CB        16.4300    3.9530   17.8920 C.3   455  LEU455      0.0270
    106  CG        14.9040    3.9340   17.7140 C.3   455  LEU455      0.0019
    107  CD1       14.2060    4.5990   18.9050 C.3   455  LEU455      0.0001
    108  CD2       14.5490    4.6260   16.4090 C.3   455  LEU455      0.0001
    109  N         18.2330    1.4380   22.8280 N.3   458  LEU458     -0.1245
    110  CA        17.0710    0.6090   23.0740 C.3   458  LEU458      0.1561
    111  C         17.3990   -0.7860   22.5670 C.2   458  LEU458      0.2260
    112  O         17.3020   -1.7680   23.3010 O.2   458  LEU458     -0.2867
    113  CB        15.8660    1.1650   22.3230 C.3   458  LEU458      0.0270
    114  CG        14.6960    0.2020   22.1470 C.3   458  LEU458      0.0019
    115  CD1       14.1350   -0.1620   23.5070 C.3   458  LEU458      0.0001
    116  CD2       13.6350    0.8430   21.2720 C.3   458  LEU458      0.0001
    117  N         18.1250   -4.6210   24.2850 N.3   462  HIS462     -0.1241
    118  CA        17.2800   -5.7270   23.8680 C.3   462  HIS462      0.1621
    119  C         18.0930   -6.8680   23.2730 C.2   462  HIS462      0.2264
    120  O         17.6650   -8.0230   23.2960 O.2   462  HIS462     -0.2867
    121  CB        16.2320   -5.2250   22.8670 C.3   462  HIS462      0.0745
    122  CG        15.0730   -6.1540   22.6920 C.ar  462  HIS462      0.0817
    123  ND1       15.0180   -7.0960   21.6900 N.ar  462  HIS462     -0.2268
    124  CD2       13.9270   -6.2890   23.4000 C.ar  462  HIS462      0.1154
    125  CE1       13.8850   -7.7690   21.7850 C.ar  462  HIS462      0.1986
    126  NE2       13.2050   -7.2990   22.8150 N.ar  462  HIS462     -0.2212
    127  N         10.4110   -6.2150   18.3500 N.3   471  VAL471     -0.1245
    128  CA        11.4790   -5.2810   18.6820 C.3   471  VAL471      0.1561
    129  C         12.7480   -5.7140   17.9690 C.2   471  VAL471      0.2260
    130  O         13.4520   -4.9020   17.3640 O.2   471  VAL471     -0.2867
    131  CB        11.7470   -5.2430   20.1990 C.3   471  VAL471      0.0252
    132  CG1       12.9040   -4.2890   20.5080 C.3   471  VAL471      0.0019
    133  CG2       10.4800   -4.8250   20.9250 C.3   471  VAL471      0.0019
    134  N         13.4490    3.2310   12.2900 N.3   483  ARG483     -0.1245
    135  CA        12.4390    4.0520   12.9370 C.3   483  ARG483      0.1563
    136  C         11.0260    3.8360   12.3530 C.2   483  ARG483      0.2260
    137  O         10.0440    3.7870   13.0970 O.2   483  ARG483     -0.2867
    138  CB        12.8760    5.5250   12.8670 C.3   483  ARG483      0.0307
    139  CG        12.1420    6.4790   13.7860 C.3   483  ARG483      0.0489
    140  CD        10.7700    6.7970   13.2470 C.3   483  ARG483      0.2205
    141  NE        10.8510    7.3640   11.9050 N.pl3 483  ARG483     -0.0865
    142  CZ         9.8510    7.3410   11.0330 C.cat 483  ARG483      0.5346
    143  NH1        8.7000    6.7770   11.3670 N.pl3 483  ARG483      0.1354
    144  NH2       10.0050    7.8760    9.8310 N.pl3 483  ARG483      0.1354
    145  N          9.5140    0.8600   14.0630 N.3   486  PHE486     -0.1227
    146  CA         9.0490    1.1090   15.4310 C.3   486  PHE486      0.1736
    147  C          7.7680    1.9420   15.4250 C.2   486  PHE486      0.2596
    148  O          6.8900    1.7540   16.2660 O.2   486  PHE486     -0.2718
    149  CB        10.1380    1.8280   16.2500 C.3   486  PHE486      0.0547
    150  CG        11.1640    0.8970   16.8660 C.ar  486  PHE486     -0.0202
    151  CD1       10.8230    0.0700   17.9400 C.ar  486  PHE486     -0.0042
    152  CD2       12.4660    0.8370   16.3660 C.ar  486  PHE486     -0.0042
    153  CE1       11.7610   -0.8030   18.5040 C.ar  486  PHE486     -0.0003
    154  CE2       13.4160   -0.0370   16.9230 C.ar  486  PHE486     -0.0003
    155  CZ        13.0570   -0.8570   17.9950 C.ar  486  PHE486     -0.0000
    156  N          7.6690    2.8680   14.4750 N.am  487  SER487     -0.1952
    157  CA         6.4860    3.7080   14.3640 C.3   487  SER487      0.1924
    158  C          5.3020    2.8520   13.9430 C.2   487  SER487      0.2314
    159  O          4.1640    3.1530   14.2830 O.2   487  SER487     -0.2863
    160  CB         6.7090    4.8120   13.3290 C.3   487  SER487      0.2116
    161  OG         7.6410    5.7710   13.7820 O.3   487  SER487     -0.2180
    162  N          4.5690   -0.1650   14.9480 N.3   489  LEU489     -0.1245
    163  CA         4.0900   -1.1090   15.9550 C.3   489  LEU489      0.1561
    164  C          2.6870   -0.7370   16.4170 C.2   489  LEU489      0.2260
    165  O          2.3580    0.4370   16.5500 O.2   489  LEU489     -0.2867
    166  CB         5.0330   -1.1420   17.1610 C.3   489  LEU489      0.0270
    167  CG         6.3930   -1.8020   16.9120 C.3   489  LEU489      0.0019
    168  CD1        7.3830   -1.4660   18.0280 C.3   489  LEU489      0.0001
    169  CD2        6.1890   -3.3050   16.7880 C.3   489  LEU489      0.0001
@<TRIPOS>BOND
     1   144   142    1
     2   142   143    1
     3   142   141    2
     4   141   140    1
     5     1     2    1
     6   134   135    1
     7   136   135    1
     8   136   137    2
     9     7     6    1
    10     6     5    1
    11     6     8    1
    12   138   135    1
    13   138   139    1
    14     5     2    1
    15   140   139    1
    16     2     3    1
    17   160   161    1
    18   160   157    1
    19   158   159    2
    20   158   157    1
    21   145   146    1
    22     3     4    2
    23   157   156    1
    24   156   147   am
    25   162   163    1
    26   147   146    1
    27   147   148    2
    28   146   149    1
    29   163   164    1
    30   163   166    1
    31   149   150    1
    32   152   150   ar
    33   152   154   ar
    34   108   106    1
    35   164   165    2
    36   100    98    1
    37   169   167    1
    38   150   151   ar
    39   167   166    1
    40   167   168    1
    41   154   155   ar
    42    97    98    1
    43    97    94    1
    44     9    10    1
    45   130   129    2
    46    98    99    1
    47    16    14   am
    48    95    94    1
    49    95    96    2
    50   106   105    1
    51   106   107    1
    52    48    47    1
    53   105   102    1
    54   151   153   ar
    55   129   128    1
    56   155   153   ar
    57    94    93    1
    58   127   128    1
    59    13    14    1
    60    13    10    1
    61    14    15    2
    62    10    11    1
    63   128   131    1
    64    47    46    1
    65    11    12    2
    66   102   103    1
    67   102   101    1
    68   103   104    2
    69    46    45    1
    70   131   132    1
    71   131   133    1
    72    27    25    1
    73    39    38    1
    74    25    26    1
    75    25    24    2
    76    24    23    1
    77    36    38   ar
    78    36    34   ar
    79    45    44    1
    80   116   114    1
    81    23    22    1
    82    44    41    1
    83    38    37   ar
    84    43    42    2
    85   123   125   ar
    86   123   122   ar
    87   125   126   ar
    88    54    53    1
    89    91    90    1
    90    22    21    1
    91    34    33   ar
    92    41    42    1
    93    41    40    1
    94   114   113    1
    95   114   115    1
    96   113   110    1
    97    42    49   am
    98    90    92    1
    99    90    89    1
   100   111   110    1
   101   111   112    2
   102   122   121    1
   103   122   124   ar
   104   126   124   ar
   105   109   110    1
   106   121   118    1
   107    37    35   ar
   108    20    19    2
   109   119   120    2
   110   119   118    1
   111    53    50    1
   112    53    55    1
   113    33    35   ar
   114    33    32    1
   115    88    87    2
   116    49    50    1
   117    21    18    1
   118    50    51    1
   119   118   117    1
   120    89    86    1
   121    19    18    1
   122    19    28   am
   123    86    87    1
   124    86    85    1
   125    18    17    1
   126    29    32    1
   127    29    28    1
   128    29    30    1
   129    31    30    2
   130    83    82    1
   131    51    52    2
   132    62    60    1
   133    81    80    2
   134    82    84    1
   135    82    79    1
   136    80    79    1
   137    79    78    1
   138    60    61    1
   139    60    57    1
   140    77    75    1
   141    56    57    1
   142    57    58    1
   143    69    67    1
   144    75    76    1
   145    75    74    1
   146    66    65    2
   147    73    72    2
   148    71    74    1
   149    71    72    1
   150    71    70    1
   151    58    59    2
   152    67    68    1
   153    67    64    1
   154    65    70   am
   155    65    64    1
   156    64    63    1
