@<TRIPOS>MOLECULE
tmp/1ha3A00.pdb
 141 137 0 0 0
SMALL
GASTEIGER

@<TRIPOS>ATOM
      1  N         16.2900   -1.5780    9.9190 N.3    18  VAL18      -0.1231
      2  CA        15.6880   -0.3830    9.3450 C.3    18  VAL18       0.1692
      3  C         14.1940   -0.5540    9.0810 C.2    18  VAL18       0.2592
      4  O         13.7500   -1.5810    8.5620 O.2    18  VAL18      -0.2718
      5  CB        16.4220    0.0350    8.0330 C.3    18  VAL18       0.0266
      6  CG1       16.3780   -1.1020    7.0100 C.3    18  VAL18       0.0020
      7  CG2       15.8130    1.3080    7.4720 C.3    18  VAL18       0.0020
      8  N         13.4310    0.4600    9.4810 N.am   19  ASP19      -0.1960
      9  CA        11.9810    0.4970    9.3220 C.3    19  ASP19       0.1840
     10  C         11.1890   -0.3680   10.3000 C.2    19  ASP19       0.2622
     11  O          9.9640   -0.4190   10.2250 O.2    19  ASP19      -0.2715
     12  CB        11.5920    0.1280    7.8900 C.3    19  ASP19       0.1450
     13  CG        11.1410    1.3330    7.0870 C.2    19  ASP19       0.3671
     14  OD1       11.9130    2.3130    6.9870 O.co2  19  ASP19      -0.2456
     15  OD2       10.0070    1.3000    6.5600 O.co2  19  ASP19      -0.2456
     16  N         11.8590   -1.0450   11.2220 N.am   20  HIS20      -0.1959
     17  CA        11.0990   -1.8650   12.1470 C.3    20  HIS20       0.1787
     18  C         10.3980   -1.0490   13.2300 C.2    20  HIS20       0.2621
     19  O          9.4950   -1.5540   13.8960 O.2    20  HIS20      -0.2715
     20  CB        11.9740   -2.9870   12.7270 C.3    20  HIS20       0.0785
     21  CG        12.2060   -4.1140   11.7610 C.ar   20  HIS20       0.0821
     22  ND1       12.6250   -5.3680   12.1560 N.ar   20  HIS20      -0.2267
     23  CD2       12.0600   -4.1760   10.4140 C.ar   20  HIS20       0.1154
     24  CE1       12.7230   -6.1540   11.0980 C.ar   20  HIS20       0.1986
     25  NE2       12.3860   -5.4570   10.0280 N.ar   20  HIS20      -0.2212
     26  N         10.7940    0.2150   13.3900 N.am   21  GLY21      -0.1940
     27  CA        10.1580    1.0590   14.3890 C.3    21  GLY21       0.2014
     28  C         10.9420    1.6970   15.5240 C.2    21  GLY21       0.2639
     29  O         10.3320    2.1480   16.4920 O.2    21  GLY21      -0.2714
     30  N         12.2660    1.7580   15.4230 N.am   22  LYS22      -0.1963
     31  CA        13.0780    2.3570   16.4830 C.3    22  LYS22       0.1728
     32  C         12.6990    3.7990   16.8170 C.2    22  LYS22       0.2617
     33  O         12.5070    4.1470   17.9800 O.2    22  LYS22      -0.2715
     34  CB        14.5610    2.3200   16.1000 C.3    22  LYS22       0.0311
     35  CG        15.1140    0.9180   15.8730 C.3    22  LYS22       0.0038
     36  CD        16.5880    0.9410   15.4790 C.3    22  LYS22       0.0206
     37  CE        16.8220    1.5860   14.1120 C.3    22  LYS22       0.1093
     38  NZ        16.1650    0.8280   13.0080 N.3    22  LYS22      -0.1314
     39  N         12.5930    4.6370   15.7940 N.am   23  THR23      -0.1937
     40  CA        12.2490    6.0390   15.9870 C.3    23  THR23       0.2028
     41  C         10.8130    6.2830   16.4330 C.2    23  THR23       0.2642
     42  O         10.5520    7.2020   17.2140 O.2    23  THR23      -0.2714
     43  CB        12.5420    6.8420   14.7070 C.3    23  THR23       0.1808
     44  OG1       13.9150    6.6540   14.3490 O.3    23  THR23      -0.2208
     45  CG2       12.2950    8.3350   14.9300 C.3    23  THR23       0.0379
     46  N          9.8820    5.4710   15.9410 N.am   24  THR24      -0.1950
     47  CA         8.4840    5.6260   16.3170 C.3    24  THR24       0.1897
     48  C          8.3440    5.2400   17.7960 C.2    24  THR24       0.2313
     49  O          7.6250    5.8890   18.5580 O.2    24  THR24      -0.2863
     50  CB         7.5650    4.7250   15.4520 C.3    24  THR24       0.1794
     51  OG1        7.7610    5.0320   14.0640 O.3    24  THR24      -0.2208
     52  CG2        6.0980    4.9570   15.8090 C.3    24  THR24       0.0378
     53  N          7.8910   12.4490   16.3620 N.3    45  TYR45      -0.1241
     54  CA         8.5830   11.4790   15.5210 C.3    45  TYR45       0.1605
     55  C          9.4020   12.1890   14.4450 C.2    45  TYR45       0.2264
     56  O         10.5170   11.7740   14.1240 O.2    45  TYR45      -0.2867
     57  CB         7.5630   10.5420   14.8630 C.3    45  TYR45       0.0534
     58  CG         8.1330    9.6780   13.7600 C.ar   45  TYR45      -0.0201
     59  CD1        8.9920    8.6190   14.0460 C.ar   45  TYR45      -0.0009
     60  CD2        7.8400    9.9450   12.4220 C.ar   45  TYR45      -0.0009
     61  CE1        9.5500    7.8450   13.0240 C.ar   45  TYR45       0.0417
     62  CE2        8.3910    9.1810   11.3950 C.ar   45  TYR45       0.0417
     63  CZ         9.2470    8.1350   11.7030 C.ar   45  TYR45       0.1957
     64  OH         9.8090    7.3960   10.6890 O.3    45  TYR45      -0.2866
     65  N         13.5480   11.7510   14.0000 N.3    49  ASP49      -0.1239
     66  CA        13.9800   11.2260   12.7100 C.3    49  ASP49       0.1674
     67  C         14.5170   12.4000   11.8900 C.2    49  ASP49       0.2266
     68  O         14.0820   12.6430   10.7640 O.2    49  ASP49      -0.2867
     69  CB        12.7990   10.5660   11.9880 C.3    49  ASP49       0.1410
     70  CG        13.2170    9.8450   10.7150 C.2    49  ASP49       0.3668
     71  OD1       14.0700    8.9360   10.7960 O.co2  49  ASP49      -0.2456
     72  OD2       12.6880   10.1840    9.6340 O.co2  49  ASP49      -0.2456
     73  N         19.9900    5.6560   14.3300 N.3    69  PRO69      -0.2116
     74  CA        19.4390    5.6100   12.9740 C.3    69  PRO69       0.1372
     75  C         19.6580    4.1720   12.4860 C.2    69  PRO69       0.2244
     76  O         18.8330    3.6190   11.7650 O.2    69  PRO69      -0.2868
     77  CB        20.2850    6.6370   12.2320 C.3    69  PRO69       0.0268
     78  CG        20.5340    7.6750   13.3030 C.3    69  PRO69       0.0207
     79  CD        20.8990    6.8050   14.4970 C.3    69  PRO69       0.0892
     80  N         21.9220    2.8690   10.3300 N.3    71  HIS71      -0.1241
     81  CA        22.4450    2.6460    8.9880 C.3    71  HIS71       0.1621
     82  C         23.9460    2.3710    8.9680 C.2    71  HIS71       0.2264
     83  O         24.6610    2.7150    9.9070 O.2    71  HIS71      -0.2867
     84  CB        22.1140    3.8600    8.1240 C.3    71  HIS71       0.0745
     85  CG        20.7100    4.3460    8.3000 C.ar   71  HIS71       0.0817
     86  ND1       19.6130    3.5310    8.1180 N.ar   71  HIS71      -0.2268
     87  CD2       20.2220    5.5570    8.6630 C.ar   71  HIS71       0.1154
     88  CE1       18.5110    4.2190    8.3600 C.ar   71  HIS71       0.1986
     89  NE2       18.8530    5.4510    8.6920 N.ar   71  HIS71      -0.2212
     90  N          7.4830   -5.1230   17.5250 N.3   122  ASN122     -0.1225
     91  CA         6.6470   -4.0490   17.0210 C.3   122  ASN122      0.1785
     92  C          5.7040   -4.4430   15.8810 C.2   122  ASN122      0.2597
     93  O          5.7580   -5.5610   15.3690 O.2   122  ASN122     -0.2718
     94  CB         7.5670   -2.9080   16.5850 C.3   122  ASN122      0.1169
     95  CG         6.8390   -1.5950   16.4330 C.2   122  ASN122      0.2627
     96  OD1        5.8990   -1.3130   17.1700 O.2   122  ASN122     -0.2716
     97  ND2        7.2860   -0.7710   15.4870 N.am  122  ASN122     -0.0877
     98  N          4.8320   -3.5090   15.5130 N.am  123  LYS123     -0.1980
     99  CA         3.8560   -3.6970   14.4400 C.3   123  LYS123      0.1596
    100  C          2.9130   -4.8970   14.5860 C.2   123  LYS123      0.2287
    101  O          2.4690   -5.4600   13.5850 O.2   123  LYS123     -0.2864
    102  CB         4.5870   -3.7820   13.0890 C.3   123  LYS123      0.0298
    103  CG         5.4960   -2.5840   12.8040 C.3   123  LYS123      0.0038
    104  CD         6.0310   -2.5780   11.3790 C.3   123  LYS123      0.0206
    105  CE         6.9200   -1.3540   11.1320 C.3   123  LYS123      0.1093
    106  NZ         7.3380   -1.2070    9.7050 N.3   123  LYS123     -0.1314
    107  N          0.0720   -4.8030   15.1780 N.3   125  ASP125     -0.1225
    108  CA        -1.2150   -4.3610   14.6610 C.3   125  ASP125      0.1805
    109  C         -1.3430   -4.8900   13.2350 C.2   125  ASP125      0.2597
    110  O         -2.4360   -4.9380   12.6730 O.2   125  ASP125     -0.2718
    111  CB        -1.3050   -2.8280   14.6610 C.3   125  ASP125      0.1424
    112  CG        -0.1590   -2.1690   13.9070 C.2   125  ASP125      0.3668
    113  OD1        0.9950   -2.2600   14.3800 O.co2 125  ASP125     -0.2456
    114  OD2       -0.4080   -1.5590   12.8440 O.co2 125  ASP125     -0.2456
    115  N         -0.2140   -5.3020   12.6620 N.am  126  MET126     -0.1979
    116  CA        -0.1840   -5.8300   11.3040 C.3   126  MET126      0.1605
    117  C         -0.2680   -7.3490   11.2750 C.2   126  MET126      0.2287
    118  O         -0.5370   -7.9350   10.2270 O.2   126  MET126     -0.2864
    119  CB         1.0950   -5.3840   10.5890 C.3   126  MET126      0.0413
    120  CG         1.2760   -3.8760   10.4890 C.3   126  MET126      0.0598
    121  SD        -0.0300   -3.0580    9.5500 S.3   126  MET126     -0.1393
    122  CE         0.6040   -3.1980    7.8840 C.3   126  MET126      0.0692
    123  N          2.5090   -2.0770   19.4730 N.3   160  SER160     -0.1202
    124  CA         2.4950   -1.2100   18.3040 C.3   160  SER160      0.2020
    125  C          2.9010    0.2060   18.6930 C.2   160  SER160      0.2619
    126  O          2.1330    0.9280   19.3240 O.2   160  SER160     -0.2717
    127  CB         1.0970   -1.1800   17.6790 C.3   160  SER160      0.2103
    128  OG         1.0190   -0.1510   16.7090 O.3   160  SER160     -0.2182
    129  N          4.1090    0.6000   18.3100 N.am  161  ALA161     -0.1965
    130  CA         4.6140    1.9300   18.6190 C.3   161  ALA161      0.1728
    131  C          3.7670    3.0180   17.9550 C.2   161  ALA161      0.2616
    132  O          3.5190    4.0750   18.5410 O.2   161  ALA161     -0.2715
    133  CB         6.0630    2.0510   18.1620 C.3   161  ALA161      0.0334
    134  N          3.3250    2.7520   16.7310 N.am  162  LEU162     -0.1977
    135  CA         2.5120    3.7040   15.9820 C.3   162  LEU162      0.1596
    136  C          1.1490    3.9790   16.6100 C.2   162  LEU162      0.2287
    137  O          0.7800    5.1330   16.7990 O.2   162  LEU162     -0.2864
    138  CB         2.3270    3.2170   14.5420 C.3   162  LEU162      0.0297
    139  CG         1.5190    4.1320   13.6150 C.3   162  LEU162      0.0022
    140  CD1        2.2350    5.4610   13.4460 C.3   162  LEU162      0.0001
    141  CD2        1.3350    3.4610   12.2650 C.3   162  LEU162      0.0001
@<TRIPOS>BOND
     1    15    13   ar
     2    14    13   ar
     3     6     5    1
     4    13    12    1
     5     7     5    1
     6   122   121    1
     7    12     9    1
     8     5     2    1
     9    86    85   ar
    10    86    88   ar
    11    84    85    1
    12    84    81    1
    13    85    87   ar
    14    88    89   ar
    15     4     3    2
    16    87    89   ar
    17    82    81    1
    18    82    83    2
    19    81    80    1
    20     3     2    1
    21     3     8   am
    22     9     8    1
    23     9    10    1
    24     2     1    1
    25   121   120    1
    26    72    70   ar
    27   106   105    1
    28    25    23   ar
    29    25    24   ar
    30    11    10    2
    31   118   117    2
    32    10    16   am
    33    23    21   ar
    34   120   119    1
    35   119   116    1
    36    64    63    1
    37    70    71   ar
    38    70    69    1
    39    68    67    2
    40    24    22   ar
    41   105   104    1
    42    16    17    1
    43   117   116    1
    44   116   115    1
    45   104   103    1
    46    62    63   ar
    47    62    60   ar
    48    63    61   ar
    49    21    22   ar
    50    21    20    1
    51    76    75    2
    52    67    66    1
    53    69    66    1
    54    17    20    1
    55    17    18    1
    56    77    74    1
    57    77    78    1
    58   141   139    1
    59    60    58   ar
    60    75    74    1
    61   115   109   am
    62   110   109    2
    63    66    65    1
    64   103   102    1
    65   114   112   ar
    66    74    73    1
    67    38    37    1
    68    61    59   ar
    69   102    99    1
    70    18    26   am
    71    18    19    2
    72   109   108    1
    73    78    79    1
    74    26    27    1
    75   140   139    1
    76   101   100    2
    77   139   138    1
    78    58    59   ar
    79    58    57    1
    80   112   113   ar
    81   112   111    1
    82    51    50    1
    83    37    36    1
    84    56    55    2
    85    73    79    1
    86    44    43    1
    87    27    28    1
    88    99   100    1
    89    99    98    1
    90    55    54    1
    91   138   135    1
    92   111   108    1
    93   108   107    1
    94    43    45    1
    95    43    40    1
    96    57    54    1
    97    93    92    2
    98    30    28   am
    99    30    31    1
   100    50    52    1
   101    50    47    1
   102    36    35    1
   103    97    95   am
   104    98    92   am
   105    54    53    1
   106    28    29    2
   107    39    40    1
   108    39    32   am
   109    35    34    1
   110    92    91    1
   111    46    47    1
   112    46    41   am
   113   135   136    1
   114   135   134    1
   115    40    41    1
   116    34    31    1
   117    47    48    1
   118    41    42    2
   119    95    94    1
   120    95    96    2
   121    31    32    1
   122    94    91    1
   123   136   137    2
   124   128   127    1
   125   134   131   am
   126    32    33    2
   127    91    90    1
   128   127   124    1
   129    48    49    2
   130   131   132    2
   131   131   130    1
   132   133   130    1
   133   124   125    1
   134   124   123    1
   135   129   130    1
   136   129   125   am
   137   125   126    2
