@<TRIPOS>MOLECULE
tmp/1hakA00.pdb
 173 166 0 0 0
SMALL
GASTEIGER

@<TRIPOS>ATOM
      1  N         20.2010   13.5580  -20.0700 N.3     3  LEU3       -0.1245
      2  CA        20.7070   13.2810  -21.4210 C.3     3  LEU3        0.1561
      3  C         21.7420   12.1700  -21.4530 C.2     3  LEU3        0.2260
      4  O         22.5450   12.0550  -20.5520 O.2     3  LEU3       -0.2867
      5  CB        21.2940   14.5740  -21.9790 C.3     3  LEU3        0.0270
      6  CG        20.3320   15.6320  -22.5760 C.3     3  LEU3        0.0019
      7  CD1       20.1010   15.3330  -24.0510 C.3     3  LEU3        0.0001
      8  CD2       19.0070   15.9050  -21.8350 C.3     3  LEU3        0.0001
      9  N         21.4010   24.9800  -36.1010 N.3   113  ALA113     -0.1231
     10  CA        20.2370   25.1020  -35.2080 C.3   113  ALA113      0.1694
     11  C         20.1510   24.1690  -33.9860 C.2   113  ALA113      0.2593
     12  O         19.5750   24.4690  -32.9470 O.2   113  ALA113     -0.2718
     13  CB        18.9610   24.9400  -36.0120 C.3   113  ALA113      0.0304
     14  N         20.7420   22.9870  -34.1480 N.am  114  SER114     -0.1938
     15  CA        20.6270   22.0160  -33.0460 C.3   114  SER114      0.2055
     16  C         21.7330   21.9440  -32.0080 C.2   114  SER114      0.2643
     17  O         21.5960   21.3840  -30.9300 O.2   114  SER114     -0.2714
     18  CB        20.4790   20.6030  -33.5570 C.3   114  SER114      0.2130
     19  OG        21.7050   20.2140  -34.1680 O.3   114  SER114     -0.2179
     20  N         22.8750   22.5220  -32.3660 N.am  115  ARG115     -0.1963
     21  CA        23.9400   22.5400  -31.3680 C.3   115  ARG115      0.1729
     22  C         23.8550   23.7240  -30.4100 C.2   115  ARG115      0.2617
     23  O         23.7120   24.8800  -30.7750 O.2   115  ARG115     -0.2715
     24  CB        25.2770   22.4940  -32.0740 C.3   115  ARG115      0.0348
     25  CG        25.7390   21.0850  -32.4260 C.3   115  ARG115      0.0492
     26  CD        24.8430   20.2850  -33.3770 C.3   115  ARG115      0.2205
     27  NE        25.4590   19.0170  -33.7610 N.pl3 115  ARG115     -0.0865
     28  CZ        24.7280   18.0030  -34.2280 C.cat 115  ARG115      0.5346
     29  NH1       23.4490   18.1350  -34.4880 N.pl3 115  ARG115      0.1354
     30  NH2       25.2990   16.8380  -34.4210 N.pl3 115  ARG115      0.1354
     31  N         23.9330   23.3930  -29.1200 N.am  116  THR116     -0.1937
     32  CA        23.9000   24.4770  -28.1130 C.3   116  THR116      0.2013
     33  C         25.0800   25.4320  -28.1880 C.2   116  THR116      0.2484
     34  O         26.0990   25.1600  -28.8120 O.2   116  THR116     -0.2729
     35  CB        23.7940   23.9550  -26.6780 C.3   116  THR116      0.1807
     36  OG1       25.0650   23.6310  -26.1390 O.3   116  THR116     -0.2208
     37  CG2       22.8650   22.7750  -26.5830 C.3   116  THR116      0.0379
     38  N         24.9760   26.5920  -27.5310 N.am  117  PRO117     -0.2726
     39  CA        26.1200   27.4930  -27.5210 C.3   117  PRO117      0.1402
     40  C         27.4760   26.9480  -27.0920 C.2   117  PRO117      0.2269
     41  O         28.4620   27.2560  -27.7340 O.2   117  PRO117     -0.2865
     42  CB        25.5890   28.6360  -26.6690 C.3   117  PRO117      0.0296
     43  CG        24.0930   28.6620  -26.9470 C.3   117  PRO117      0.0237
     44  CD        23.8310   27.1750  -26.8830 C.3   117  PRO117      0.0939
     45  N         28.6960   24.1290  -27.6350 N.3   119  GLU119     -0.1245
     46  CA        29.0090   23.4730  -28.9150 C.3   119  GLU119      0.1567
     47  C         29.3220   24.3270  -30.1550 C.2   119  GLU119      0.2260
     48  O         30.2670   24.0900  -30.8920 O.2   119  GLU119     -0.2867
     49  CB        27.8750   22.5110  -29.2820 C.3   119  GLU119      0.0388
     50  CG        27.4340   21.6220  -28.1200 C.3   119  GLU119      0.1160
     51  CD        26.2690   20.7370  -28.4990 C.2   119  GLU119      0.3649
     52  OE1       26.5070   19.7490  -29.1770 O.co2 119  GLU119     -0.2457
     53  OE2       25.1390   21.0100  -28.0980 O.co2 119  GLU119     -0.2457
     54  N         23.0510   34.0120  -26.8370 N.3   159  ARG159     -0.1231
     55  CA        21.6800   34.1370  -26.3490 C.3   159  ARG159      0.1694
     56  C         21.5800   34.6900  -24.9300 C.2   159  ARG159      0.2592
     57  O         22.3760   34.3640  -24.0570 O.2   159  ARG159     -0.2718
     58  CB        20.9820   32.7920  -26.4840 C.3   159  ARG159      0.0321
     59  CG        21.2820   32.1890  -27.8560 C.3   159  ARG159      0.0489
     60  CD        20.6200   30.8480  -28.1190 C.3   159  ARG159      0.2205
     61  NE        19.1750   30.9750  -28.0590 N.pl3 159  ARG159     -0.0865
     62  CZ        18.4180   30.5480  -29.0840 C.cat 159  ARG159      0.5346
     63  NH1       18.9040   29.7510  -30.0330 N.pl3 159  ARG159      0.1354
     64  NH2       17.1560   30.9420  -29.1590 N.pl3 159  ARG159      0.1354
     65  N         20.5600   35.5330  -24.7170 N.am  160  ASP160     -0.1960
     66  CA        20.2660   35.9760  -23.3510 C.3   160  ASP160      0.1825
     67  C         20.1330   34.8390  -22.3730 C.2   160  ASP160      0.2464
     68  O         19.2530   34.0130  -22.5120 O.2   160  ASP160     -0.2730
     69  CB        18.9210   36.6750  -23.2990 C.3   160  ASP160      0.1450
     70  CG        18.9060   37.9790  -24.0580 C.2   160  ASP160      0.3671
     71  OD1       19.9670   38.4910  -24.4300 O.co2 160  ASP160     -0.2456
     72  OD2       17.8080   38.4840  -24.2640 O.co2 160  ASP160     -0.2456
     73  N         21.0060   34.7640  -21.3710 N.am  161  PRO161     -0.2715
     74  CA        20.9080   33.5810  -20.5040 C.3   161  PRO161      0.1536
     75  C         19.6920   33.6500  -19.5780 C.2   161  PRO161      0.2598
     76  O         18.9920   34.6500  -19.4540 O.2   161  PRO161     -0.2715
     77  CB        22.2530   33.5950  -19.7650 C.3   161  PRO161      0.0310
     78  CG        22.5900   35.0970  -19.6810 C.3   161  PRO161      0.0237
     79  CD        22.0650   35.6880  -21.0020 C.3   161  PRO161      0.0939
     80  N         19.4430   32.5130  -18.9390 N.am  162  ASP162     -0.1972
     81  CA        18.1460   32.4060  -18.2480 C.3   162  ASP162      0.1709
     82  C         17.9690   33.0160  -16.8130 C.2   162  ASP162      0.2293
     83  O         18.4970   32.4950  -15.8240 O.2   162  ASP162     -0.2864
     84  CB        17.7270   30.9220  -18.2550 C.3   162  ASP162      0.1436
     85  CG        17.5400   30.3650  -19.6610 C.2   162  ASP162      0.3671
     86  OD1       16.6010   30.8090  -20.3070 O.co2 162  ASP162     -0.2456
     87  OD2       18.3000   29.4860  -20.0990 O.co2 162  ASP162     -0.2456
     88  N         16.2770   34.0180  -25.2670 N.3   200  SER200     -0.1202
     89  CA        16.5650   32.7110  -24.6320 C.3   200  SER200      0.2020
     90  C         15.6390   31.5410  -24.8960 C.2   200  SER200      0.2618
     91  O         14.4810   31.6390  -25.2610 O.2   200  SER200     -0.2717
     92  CB        16.6030   32.7890  -23.1070 C.3   200  SER200      0.2103
     93  OG        15.3010   33.0650  -22.5470 O.3   200  SER200     -0.2182
     94  N         16.1760   30.3750  -24.6070 N.am  201  VAL201     -0.1979
     95  CA        15.3240   29.1800  -24.7260 C.3   201  VAL201      0.1595
     96  C         13.9230   29.2000  -24.0600 C.2   201  VAL201      0.2287
     97  O         12.9070   28.9500  -24.6870 O.2   201  VAL201     -0.2864
     98  CB        16.1740   27.9740  -24.3180 C.3   201  VAL201      0.0276
     99  CG1       15.4140   26.6660  -24.2550 C.3   201  VAL201      0.0022
    100  CG2       17.3490   27.8660  -25.2740 C.3   201  VAL201      0.0022
    101  N         10.3060   29.5120  -25.4430 N.3   205  ARG205     -0.1245
    102  CA         9.2120   28.5980  -25.0150 C.3   205  ARG205      0.1563
    103  C          7.9330   29.2450  -24.4470 C.2   205  ARG205      0.2260
    104  O          6.8240   28.9570  -24.8620 O.2   205  ARG205     -0.2867
    105  CB         9.7100   27.5460  -24.0230 C.3   205  ARG205      0.0307
    106  CG        10.8310   26.5710  -24.4540 C.3   205  ARG205      0.0489
    107  CD        11.3910   25.7530  -23.2560 C.3   205  ARG205      0.2205
    108  NE        12.4350   24.7800  -23.6110 N.pl3 205  ARG205     -0.0865
    109  CZ        12.8750   23.8260  -22.7510 C.cat 205  ARG205      0.5346
    110  NH1       12.3310   23.6750  -21.5510 N.pl3 205  ARG205      0.1354
    111  NH2       13.8720   23.0150  -23.0880 N.pl3 205  ARG205      0.1354
    112  N         13.8450   22.9490  -32.0590 N.3   241  SER241     -0.1202
    113  CA        15.0760   22.8350  -31.2430 C.3   241  SER241      0.2020
    114  C         15.0290   23.4760  -29.8660 C.2   241  SER241      0.2618
    115  O         15.2910   22.8880  -28.8350 O.2   241  SER241     -0.2717
    116  CB        16.2540   23.3990  -32.0160 C.3   241  SER241      0.2103
    117  OG        17.4660   23.0600  -31.3660 O.3   241  SER241     -0.2182
    118  N         14.5320   24.7120  -29.8800 N.am  242  ILE242     -0.1979
    119  CA        14.0660   25.2910  -28.6220 C.3   242  ILE242      0.1595
    120  C         13.1120   24.4000  -27.8580 C.2   242  ILE242      0.2287
    121  O         13.3010   24.1510  -26.6930 O.2   242  ILE242     -0.2864
    122  CB        13.4540   26.6890  -28.8010 C.3   242  ILE242      0.0276
    123  CG1       14.3600   27.6780  -29.5230 C.3   242  ILE242      0.0022
    124  CG2       13.0670   27.3140  -27.4650 C.3   242  ILE242      0.0022
    125  CD1       15.4550   28.2630  -28.6460 C.3   242  ILE242      0.0001
    126  N         12.8090   21.0820  -28.0740 N.3   244  SER244     -0.1202
    127  CA        13.5320   19.8500  -27.7030 C.3   244  SER244      0.2020
    128  C         14.4850   19.3420  -28.7370 C.2   244  SER244      0.2619
    129  O         14.1060   18.8880  -29.8070 O.2   244  SER244     -0.2717
    130  CB        12.6680   18.6230  -27.4370 C.3   244  SER244      0.2103
    131  OG        13.4790   17.4590  -27.2250 O.3   244  SER244     -0.2182
    132  N         15.7580   19.3490  -28.3330 N.am  245  ILE245     -0.1966
    133  CA        16.7810   18.7450  -29.2020 C.3   245  ILE245      0.1712
    134  C         16.6880   17.2210  -29.5820 C.2   245  ILE245      0.2458
    135  O         16.6310   16.8450  -30.7530 O.2   245  ILE245     -0.2730
    136  CB        18.1540   19.2390  -28.7230 C.3   245  ILE245      0.0289
    137  CG1       18.0770   20.7580  -28.6960 C.3   245  ILE245      0.0022
    138  CG2       19.2560   18.8000  -29.6740 C.3   245  ILE245      0.0023
    139  CD1       19.4120   21.4870  -28.5360 C.3   245  ILE245      0.0001
    140  N         16.6060   16.2910  -28.5860 N.am  246  PRO246     -0.2727
    141  CA        16.2940   14.9070  -28.9670 C.3   246  PRO246      0.1402
    142  C         15.1380   14.7330  -29.9240 C.2   246  PRO246      0.2269
    143  O         15.2110   14.0050  -30.8970 O.2   246  PRO246     -0.2865
    144  CB        16.0650   14.2270  -27.6360 C.3   246  PRO246      0.0296
    145  CG        16.9890   14.9950  -26.7040 C.3   246  PRO246      0.0237
    146  CD        16.8120   16.4260  -27.1550 C.3   246  PRO246      0.0939
    147  N         25.5470   11.8780  -32.4190 N.3   274  ARG274     -0.1245
    148  CA        24.8190   11.8160  -31.1520 C.3   274  ARG274      0.1563
    149  C         25.0190   10.5670  -30.3320 C.2   274  ARG274      0.2260
    150  O         24.4920   10.4190  -29.2390 O.2   274  ARG274     -0.2867
    151  CB        23.3220   11.9490  -31.3850 C.3   274  ARG274      0.0307
    152  CG        22.9540   13.0670  -32.3380 C.3   274  ARG274      0.0489
    153  CD        23.6190   14.3900  -31.9770 C.3   274  ARG274      0.2205
    154  NE        23.0500   14.9550  -30.7650 N.pl3 274  ARG274     -0.0865
    155  CZ        23.5470   16.1080  -30.2900 C.cat 274  ARG274      0.5346
    156  NH1       24.7430   16.5520  -30.6540 N.pl3 274  ARG274      0.1354
    157  NH2       22.8220   16.8270  -29.4490 N.pl3 274  ARG274      0.1354
    158  N         26.2080   11.2090  -26.9720 N.3   277  ILE277     -0.1231
    159  CA        25.6520   12.3310  -26.2120 C.3   277  ILE277      0.1692
    160  C         24.1950   12.1530  -25.8040 C.2   277  ILE277      0.2592
    161  O         23.8170   12.1990  -24.6510 O.2   277  ILE277     -0.2718
    162  CB        25.8300   13.6620  -26.9600 C.3   277  ILE277      0.0266
    163  CG1       27.2860   13.9820  -27.3050 C.3   277  ILE277      0.0019
    164  CG2       25.2340   14.7470  -26.0800 C.3   277  ILE277      0.0020
    165  CD1       27.3840   15.1880  -28.2290 C.3   277  ILE277      0.0001
    166  N         23.3600   11.9340  -26.8140 N.am  278  ASP278     -0.1974
    167  CA        21.9530   11.8310  -26.4600 C.3   278  ASP278      0.1709
    168  C         21.1400   10.7310  -27.1140 C.2   278  ASP278      0.2293
    169  O         19.9350   10.6310  -26.9710 O.2   278  ASP278     -0.2864
    170  CB        21.2860   13.1940  -26.6040 C.3   278  ASP278      0.1436
    171  CG        21.2570   13.7560  -28.0150 C.2   278  ASP278      0.3671
    172  OD1       21.7220   13.0970  -28.9290 O.co2 278  ASP278     -0.2456
    173  OD2       20.7580   14.8640  -28.1910 O.co2 278  ASP278     -0.2456
@<TRIPOS>BOND
     1     9    10    1
     2    13    10    1
     3    10    11    1
     4    29    28    1
     5    30    28    1
     6    28    27    2
     7    19    18    1
     8    14    11   am
     9    14    15    1
    10    11    12    2
    11    27    26    1
    12    18    15    1
    13    26    25    1
    14    15    16    1
    15    25    24    1
    16   147   148    1
    17    20    16   am
    18    20    21    1
    19   152   153    1
    20   152   151    1
    21    24    21    1
    22   112   113    1
    23   116   117    1
    24   116   113    1
    25    16    17    2
    26   153   154    1
    27   151   148    1
    28    21    22    1
    29   113   114    1
    30   148   149    1
    31   143   142    2
    32    48    47    2
    33    23    22    2
    34   154   155    2
    35   135   134    2
    36   156   155    1
    37    22    31   am
    38   149   150    2
    39   155   157    1
    40    47    46    1
    41    63    62    1
    42   142   141    1
    43   118   114   am
    44   118   119    1
    45   114   115    2
    46   129   128    2
    47   138   136    1
    48   134   133    1
    49   134   140   am
    50   123   122    1
    51   123   125    1
    52    49    46    1
    53    49    50    1
    54   133   136    1
    55   133   132    1
    56    52    51   ar
    57    64    62    1
    58    31    32    1
    59    62    61    2
    60   141   140    1
    61   141   144    1
    62   172   171   ar
    63    46    45    1
    64    34    33    2
    65   122   119    1
    66   122   124    1
    67   128   132   am
    68   128   127    1
    69   136   137    1
    70   137   139    1
    71   119   120    1
    72   140   146    1
    73    51    50    1
    74    51    53   ar
    75   165   163    1
    76   173   171   ar
    77    33    32    1
    78    33    38   am
    79    60    61    1
    80    60    59    1
    81    32    35    1
    82   126   127    1
    83   171   170    1
    84   120   121    2
    85    59    58    1
    86    41    40    2
    87   127   130    1
    88   144   145    1
    89    38    39    1
    90    38    44    1
    91    39    40    1
    92    39    42    1
    93   130   131    1
    94   163   162    1
    95   146   145    1
    96   168   169    2
    97   168   167    1
    98   158   159    1
    99   162   159    1
   100   162   164    1
   101    43    44    1
   102    43    42    1
   103    54    55    1
   104   166   167    1
   105   166   160   am
   106    35    37    1
   107    35    36    1
   108   170   167    1
   109    58    55    1
   110    55    56    1
   111   159   160    1
   112   160   161    2
   113   101   102    1
   114   100    98    1
   115    88    89    1
   116    91    90    2
   117   102   103    1
   118   102   105    1
   119    56    65   am
   120    56    57    2
   121    90    89    1
   122    90    94   am
   123   104   103    2
   124    95    94    1
   125    95    98    1
   126    95    96    1
   127    65    66    1
   128    97    96    2
   129    89    92    1
   130   106   105    1
   131   106   107    1
   132    71    70   ar
   133    98    99    1
   134    72    70   ar
   135    70    69    1
   136     7     6    1
   137   108   107    1
   138   108   109    2
   139    66    69    1
   140    66    67    1
   141    92    93    1
   142   111   109    1
   143   109   110    1
   144     6     5    1
   145     6     8    1
   146    68    67    2
   147    67    73   am
   148     5     2    1
   149     3     2    1
   150     3     4    2
   151     2     1    1
   152    73    79    1
   153    73    74    1
   154    79    78    1
   155    74    77    1
   156    74    75    1
   157    86    85   ar
   158    87    85   ar
   159    77    78    1
   160    85    84    1
   161    75    76    2
   162    75    80   am
   163    80    81    1
   164    84    81    1
   165    81    82    1
   166    82    83    2
