@<TRIPOS>MOLECULE
tmp/1hazB00.pdb
 161 156 0 0 0
SMALL
GASTEIGER

@<TRIPOS>ATOM
      1  N         -0.8320   25.5660   31.9210 N.3    29  THR29      -0.1203
      2  CA        -1.8390   24.5800   32.2770 C.3    29  THR29       0.1994
      3  C         -2.4910   24.8750   33.6260 C.2    29  THR29       0.2618
      4  O         -3.6740   24.6160   33.8120 O.2    29  THR29      -0.2717
      5  CB        -1.2430   23.1470   32.3060 C.3    29  THR29       0.1784
      6  OG1       -2.2910   22.2020   32.5560 O.3    29  THR29      -0.2211
      7  CG2       -0.1820   23.0170   33.3940 C.3    29  THR29       0.0376
      8  N         -1.7280   25.4480   34.5520 N.am   30  CYS30      -0.1969
      9  CA        -2.2370   25.7210   35.8930 C.3    30  CYS30       0.1712
     10  C         -1.5590   26.9070   36.5420 C.2    30  CYS30       0.2296
     11  O         -0.5540   27.4140   36.0500 O.2    30  CYS30      -0.2864
     12  CB        -1.9800   24.5120   36.8050 C.3    30  CYS30       0.0983
     13  SG        -3.1160   23.0990   36.6690 S.3    30  CYS30      -0.0798
     14  N         -4.0160   17.6760   41.1780 N.3    45  HIS45      -0.1241
     15  CA        -4.5220   17.2620   39.8710 C.3    45  HIS45       0.1621
     16  C         -3.7880   17.9300   38.7160 C.2    45  HIS45       0.2264
     17  O         -3.8520   17.4630   37.5790 O.2    45  HIS45      -0.2867
     18  CB        -6.0470   17.4730   39.7530 C.3    45  HIS45       0.0745
     19  CG        -6.4710   18.8890   39.5040 C.ar   45  HIS45       0.0817
     20  ND1       -6.9240   19.7220   40.5050 N.ar   45  HIS45      -0.2268
     21  CD2       -6.5680   19.5990   38.3540 C.ar   45  HIS45       0.1154
     22  CE1       -7.2860   20.8810   39.9820 C.ar   45  HIS45       0.1986
     23  NE2       -7.0810   20.8320   38.6790 N.ar   45  HIS45      -0.2212
     24  N         -3.9650   11.9600   48.1120 N.3    83  TRP83      -0.1241
     25  CA        -4.6120   12.3910   46.8810 C.3    83  TRP83       0.1605
     26  C         -5.0160   11.2010   46.0180 C.2    83  TRP83       0.2264
     27  O         -4.2430   10.2590   45.8410 O.2    83  TRP83      -0.2867
     28  CB        -3.6780   13.3090   46.0840 C.3    83  TRP83       0.0550
     29  CG        -4.1150   13.5340   44.6630 C.ar   83  TRP83       0.0003
     30  CD1       -3.4710   13.1140   43.5340 C.ar   83  TRP83       0.0946
     31  CD2       -5.2890   14.2260   44.2200 C.ar   83  TRP83       0.0152
     32  NE1       -4.1700   13.5030   42.4150 N.ar   83  TRP83      -0.2442
     33  CE2       -5.2900   14.1870   42.8060 C.ar   83  TRP83       0.0810
     34  CE3       -6.3420   14.8760   44.8790 C.ar   83  TRP83       0.0012
     35  CZ2       -6.3040   14.7740   42.0410 C.ar   83  TRP83       0.0191
     36  CZ3       -7.3510   15.4590   44.1160 C.ar   83  TRP83       0.0001
     37  CH2       -7.3230   15.4030   42.7120 C.ar   83  TRP83       0.0015
     38  N         -6.6200   10.7260   42.2660 N.3    85  THR85      -0.1218
     39  CA        -7.0130   11.3620   41.0160 C.3    85  THR85       0.1862
     40  C         -8.4460   11.0390   40.5890 C.2    85  THR85       0.2287
     41  O         -9.0750   11.8180   39.8720 O.2    85  THR85      -0.2866
     42  CB        -6.0500   10.9690   39.8770 C.3    85  THR85       0.1770
     43  OG1       -6.3300   11.7640   38.7200 O.3    85  THR85      -0.2211
     44  CG2       -6.2140    9.4970   39.5240 C.3    85  THR85       0.0375
     45  N        -11.5620   13.7410   43.2870 N.3    88  VAL88      -0.1231
     46  CA       -11.1700   15.0890   43.6900 C.3    88  VAL88       0.1692
     47  C        -12.0260   15.5900   44.8570 C.2    88  VAL88       0.2591
     48  O        -11.5610   16.3680   45.6900 O.2    88  VAL88      -0.2718
     49  CB       -11.2680   16.0890   42.5060 C.3    88  VAL88       0.0266
     50  CG1      -12.7100   16.2500   42.0680 C.3    88  VAL88       0.0020
     51  CG2      -10.6770   17.4330   42.9100 C.3    88  VAL88       0.0020
     52  N        -13.2700   15.1240   44.9260 N.am   89  ALA89      -0.1980
     53  CA       -14.1860   15.5240   45.9920 C.3    89  ALA89       0.1597
     54  C        -13.7380   15.0310   47.3650 C.2    89  ALA89       0.2287
     55  O        -14.2330   15.4980   48.3900 O.2    89  ALA89      -0.2864
     56  CB       -15.5950   15.0140   45.6890 C.3    89  ALA89       0.0319
     57  N        -23.1660   22.4670   46.9830 N.3   164  TRP164     -0.1241
     58  CA       -22.3600   21.3090   46.6250 C.3   164  TRP164      0.1605
     59  C        -22.6970   20.0250   47.3690 C.2   164  TRP164      0.2264
     60  O        -22.2060   18.9540   47.0150 O.2   164  TRP164     -0.2867
     61  CB       -20.8780   21.6200   46.8250 C.3   164  TRP164      0.0550
     62  CG       -20.2760   22.4530   45.7380 C.ar  164  TRP164      0.0003
     63  CD1      -20.0090   23.7920   45.7740 C.ar  164  TRP164      0.0946
     64  CD2      -19.8380   21.9890   44.4580 C.ar  164  TRP164      0.0152
     65  NE1      -19.4230   24.1900   44.5920 N.ar  164  TRP164     -0.2442
     66  CE2      -19.3080   23.1020   43.7670 C.ar  164  TRP164      0.0810
     67  CE3      -19.8420   20.7370   43.8280 C.ar  164  TRP164      0.0012
     68  CZ2      -18.7820   22.9990   42.4730 C.ar  164  TRP164      0.0191
     69  CZ3      -19.3200   20.6330   42.5440 C.ar  164  TRP164      0.0001
     70  CH2      -18.7960   21.7590   41.8800 C.ar  164  TRP164      0.0015
     71  N        -20.3620   16.8250   48.4020 N.3   167  THR167     -0.1218
     72  CA       -19.1970   16.9370   47.5330 C.3   167  THR167      0.1862
     73  C        -18.1030   17.7820   48.1870 C.2   167  THR167      0.2287
     74  O        -16.9170   17.4860   48.0600 O.2   167  THR167     -0.2866
     75  CB       -19.5760   17.5670   46.1760 C.3   167  THR167      0.1770
     76  OG1      -20.5500   16.7420   45.5210 O.3   167  THR167     -0.2211
     77  CG2      -18.3470   17.6990   45.2850 C.3   167  THR167      0.0375
     78  N        -13.7290   30.7490   39.0370 N.3   183  GLY183     -0.1210
     79  CA       -12.4830   30.2490   38.5000 C.3   183  GLY183      0.1956
     80  C        -12.9110   29.3880   37.3180 C.2   183  GLY183      0.2612
     81  O        -14.1010   29.0930   37.1540 O.2   183  GLY183     -0.2717
     82  N        -11.9640   28.9880   36.4800 N.am  184  CYS184     -0.1956
     83  CA       -12.2880   28.1460   35.3310 C.3   184  CYS184      0.1843
     84  C        -11.0240   27.3830   34.9500 C.2   184  CYS184      0.2625
     85  O         -9.9560   27.6350   35.5110 O.2   184  CYS184     -0.2714
     86  CB       -12.7870   29.0130   34.1700 C.3   184  CYS184      0.0997
     87  SG       -13.9290   28.2340   32.9690 S.3   184  CYS184     -0.0797
     88  N        -11.1320   26.4490   34.0110 N.am  185  GLN185     -0.1963
     89  CA        -9.9680   25.6520   33.6280 C.3   185  GLN185      0.1733
     90  C         -8.7460   26.5190   33.3560 C.2   185  GLN185      0.2616
     91  O         -8.8230   27.5100   32.6310 O.2   185  GLN185     -0.2715
     92  CB       -10.2830   24.7850   32.4020 C.3   185  GLN185      0.0408
     93  CG       -11.1580   23.5640   32.6850 C.3   185  GLN185      0.0908
     94  CD       -12.5970   23.9190   33.0080 C.2   185  GLN185      0.2608
     95  OE1      -13.0930   24.9690   32.6060 O.2   185  GLN185     -0.2717
     96  NE2      -13.2800   23.0300   33.7220 N.am  185  GLN185     -0.0878
     97  N         -7.6130   26.1370   33.9370 N.am  186  GLY186     -0.1955
     98  CA        -6.4060   26.9200   33.7590 C.3   186  GLY186      0.1869
     99  C         -6.0900   27.7200   35.0130 C.2   186  GLY186      0.2309
    100  O         -4.9680   28.1940   35.1740 O.2   186  GLY186     -0.2863
    101  N         -6.7510   26.3370   38.0040 N.3   188  SER188     -0.1217
    102  CA        -6.4300   25.2340   38.9170 C.3   188  SER188      0.1889
    103  C         -5.0440   25.3740   39.5150 C.2   188  SER188      0.2288
    104  O         -4.0950   25.7000   38.8090 O.2   188  SER188     -0.2866
    105  CB        -6.4770   23.8880   38.1770 C.3   188  SER188      0.2089
    106  OG        -7.7910   23.5150   37.8050 O.3   188  SER188     -0.2183
    107  N         -6.9370   26.6060   44.0730 N.3   206  THR206     -0.1203
    108  CA        -8.0540   26.2880   43.1870 C.3   206  THR206      0.1994
    109  C         -8.1030   24.8090   42.8290 C.2   206  THR206      0.2619
    110  O         -7.1580   24.2680   42.2570 O.2   206  THR206     -0.2717
    111  CB        -7.9730   27.1600   41.9330 C.3   206  THR206      0.1784
    112  OG1       -7.8730   28.5340   42.3390 O.3   206  THR206     -0.2211
    113  CG2       -9.2150   26.9890   41.0710 C.3   206  THR206      0.0376
    114  N         -9.2200   24.1630   43.1610 N.am  207  SER207     -0.1937
    115  CA        -9.3750   22.7320   42.9280 C.3   207  SER207      0.2055
    116  C        -10.3960   22.3160   41.8750 C.2   207  SER207      0.2643
    117  O        -10.0490   21.5880   40.9410 O.2   207  SER207     -0.2714
    118  CB        -9.6970   22.0330   44.2510 C.3   207  SER207      0.2130
    119  OG        -9.7720   20.6270   44.0720 O.3   207  SER207     -0.2179
    120  N        -11.6500   22.7400   42.0170 N.am  208  PHE208     -0.1959
    121  CA       -12.6560   22.3610   41.0290 C.3   208  PHE208      0.1771
    122  C        -13.8730   23.2630   40.9400 C.2   208  PHE208      0.2619
    123  O        -14.1140   24.1020   41.8100 O.2   208  PHE208     -0.2715
    124  CB       -13.1300   20.9110   41.2530 C.3   208  PHE208      0.0574
    125  CG       -13.8200   20.6640   42.5790 C.ar  208  PHE208     -0.0200
    126  CD1      -13.0890   20.2760   43.6980 C.ar  208  PHE208     -0.0042
    127  CD2      -15.2060   20.7680   42.6920 C.ar  208  PHE208     -0.0042
    128  CE1      -13.7260   19.9880   44.9100 C.ar  208  PHE208     -0.0003
    129  CE2      -15.8530   20.4820   43.9030 C.ar  208  PHE208     -0.0003
    130  CZ       -15.1110   20.0900   45.0100 C.ar  208  PHE208     -0.0000
    131  N        -14.6150   23.0890   39.8500 N.am  209  VAL209     -0.1963
    132  CA       -15.8510   23.8130   39.5910 C.3   209  VAL209      0.1727
    133  C        -16.8600   22.7710   39.1210 C.2   209  VAL209      0.2617
    134  O        -16.5320   21.5910   39.0070 O.2   209  VAL209     -0.2715
    135  CB       -15.7050   24.8880   38.4850 C.3   209  VAL209      0.0290
    136  CG1      -14.7860   26.0060   38.9550 C.3   209  VAL209      0.0023
    137  CG2      -15.1960   24.2580   37.1990 C.3   209  VAL209      0.0023
    138  N        -18.0760   23.2170   38.8400 N.am  210  SER210     -0.1936
    139  CA       -19.1380   22.3260   38.3910 C.3   210  SER210      0.2055
    140  C        -18.8750   21.7520   37.0050 C.2   210  SER210      0.2642
    141  O        -18.2830   22.4120   36.1500 O.2   210  SER210     -0.2714
    142  CB       -20.4680   23.0800   38.3800 C.3   210  SER210      0.2130
    143  OG       -21.4970   22.3020   37.7950 O.3   210  SER210     -0.2179
    144  N        -19.3140   20.5150   36.7880 N.am  211  ARG211     -0.1977
    145  CA       -19.1530   19.8820   35.4850 C.3   211  ARG211      0.1597
    146  C        -20.0990   20.5560   34.5020 C.2   211  ARG211      0.2287
    147  O        -19.9400   20.4330   33.2870 O.2   211  ARG211     -0.2864
    148  CB       -19.4560   18.3780   35.5570 C.3   211  ARG211      0.0334
    149  CG       -18.3010   17.5600   36.1120 C.3   211  ARG211      0.0492
    150  CD       -18.4520   16.0590   35.8770 C.3   211  ARG211      0.2205
    151  NE       -19.4510   15.4410   36.7420 N.pl3 211  ARG211     -0.0865
    152  CZ       -20.7030   15.1740   36.3810 C.cat 211  ARG211      0.5346
    153  NH1      -21.5320   14.6100   37.2490 N.pl3 211  ARG211      0.1354
    154  NH2      -21.1260   15.4570   35.1570 N.pl3 211  ARG211      0.1354
    155  N        -16.7200   28.2950   43.3100 N.3   221  THR221     -0.1218
    156  CA       -15.4560   27.6570   42.9950 C.3   221  THR221      0.1862
    157  C        -14.9660   27.0100   44.2890 C.2   221  THR221      0.2287
    158  O        -15.1140   27.5820   45.3740 O.2   221  THR221     -0.2866
    159  CB       -14.4430   28.6910   42.4840 C.3   221  THR221      0.1770
    160  OG1      -14.9940   29.3580   41.3420 O.3   221  THR221     -0.2211
    161  CG2      -13.1460   28.0130   42.0830 C.3   221  THR221      0.0375
@<TRIPOS>BOND
     1     1     2    1
     2     2     5    1
     3     2     3    1
     4     5     6    1
     5     5     7    1
     6    92    93    1
     7    92    89    1
     8    95    94    2
     9    91    90    2
    10    93    94    1
    11    87    86    1
    12    94    96   am
    13   147   146    2
    14    90    89    1
    15    90    97   am
    16     3     4    2
    17     3     8   am
    18    89    88    1
    19    98    97    1
    20    98    99    1
    21    88    84   am
    22    86    83    1
    23   146   145    1
    24     8     9    1
    25    84    83    1
    26    84    85    2
    27    99   100    2
    28   154   152    1
    29    83    82    1
    30   145   148    1
    31   145   144    1
    32   148   149    1
    33   150   149    1
    34   150   151    1
    35     9    10    1
    36     9    12    1
    37    11    10    2
    38   141   140    2
    39   152   151    2
    40   152   153    1
    41    82    80   am
    42    13    12    1
    43   144   140   am
    44   140   139    1
    45    81    80    2
    46   137   135    1
    47    80    79    1
    48    17    16    2
    49   143   142    1
    50   106   105    1
    51   101   102    1
    52   105   102    1
    53    21    23   ar
    54    21    19   ar
    55   142   139    1
    56   139   138    1
    57   135   136    1
    58   135   132    1
    59    79    78    1
    60    23    22   ar
    61    16    15    1
    62    43    42    1
    63   104   103    2
    64   138   133   am
    65   102   103    1
    66   134   133    2
    67   133   132    1
    68    19    18    1
    69    19    20   ar
    70    44    42    1
    71   132   131    1
    72    18    15    1
    73   131   122   am
    74    15    14    1
    75    41    40    2
    76    42    39    1
    77    22    20   ar
    78    40    39    1
    79   122   121    1
    80   122   123    2
    81   117   116    2
    82    39    38    1
    83   121   124    1
    84   121   120    1
    85   113   111    1
    86   124   125    1
    87   160   159    1
    88   116   120   am
    89   116   115    1
    90    70    68   ar
    91    70    69   ar
    92   111   112    1
    93   111   108    1
    94    35    37   ar
    95    35    33   ar
    96    50    49    1
    97   161   159    1
    98   110   109    2
    99    32    33   ar
   100    32    30   ar
   101    68    66   ar
   102   159   156    1
   103    49    51    1
   104    49    46    1
   105    69    67   ar
   106   125   127   ar
   107   125   126   ar
   108   127   129   ar
   109    37    36   ar
   110    33    31   ar
   111   109   114   am
   112   109   108    1
   113   115   114    1
   114   115   118    1
   115   156   155    1
   116   156   157    1
   117   108   107    1
   118    45    46    1
   119    30    29   ar
   120    46    47    1
   121   126   128   ar
   122    66    64   ar
   123    66    65   ar
   124    67    64   ar
   125   129   130   ar
   126   119   118    1
   127    36    34   ar
   128    31    29   ar
   129    31    34   ar
   130   157   158    2
   131    64    62   ar
   132    65    63   ar
   133    29    28    1
   134    47    52   am
   135    47    48    2
   136   128   130   ar
   137    52    53    1
   138    77    75    1
   139    76    75    1
   140    56    53    1
   141    62    63   ar
   142    62    61    1
   143    27    26    2
   144    53    54    1
   145    26    25    1
   146    28    25    1
   147    75    72    1
   148    58    61    1
   149    58    57    1
   150    58    59    1
   151    25    24    1
   152    60    59    2
   153    54    55    2
   154    72    73    1
   155    72    71    1
   156    74    73    2
