@<TRIPOS>MOLECULE
tmp/1hb1A00.pdb
 218 201 0 0 0
SMALL
GASTEIGER

@<TRIPOS>ATOM
      1  N         21.0680   35.8990   10.8110 N.3    84  ARG84      -0.1245
      2  CA        20.0380   35.4760    9.8650 C.3    84  ARG84       0.1563
      3  C         19.3620   34.1530   10.2180 C.2    84  ARG84       0.2260
      4  O         18.1330   34.0720   10.2320 O.2    84  ARG84      -0.2867
      5  CB        20.6520   35.2760    8.4650 C.3    84  ARG84       0.0307
      6  CG        21.1710   36.5710    7.8460 C.3    84  ARG84       0.0489
      7  CD        21.8060   36.3160    6.4840 C.3    84  ARG84       0.2205
      8  NE        20.7940   35.9730    5.4920 N.pl3  84  ARG84      -0.0865
      9  CZ        21.0240   35.4560    4.2830 C.cat  84  ARG84       0.5346
     10  NH1       22.2650   35.1780    3.8670 N.pl3  84  ARG84       0.1354
     11  NH2       19.9720   35.2300    3.5030 N.pl3  84  ARG84       0.1354
     12  N         13.0630   32.8640   15.2660 N.3    88  TYR88      -0.1241
     13  CA        12.5540   34.2150   15.4720 C.3    88  TYR88       0.1605
     14  C         11.2980   34.0840   16.3370 C.2    88  TYR88       0.2264
     15  O         10.2480   33.6190   15.8580 O.2    88  TYR88      -0.2867
     16  CB        12.2060   34.8880   14.1490 C.3    88  TYR88       0.0534
     17  CG        13.3380   35.1550   13.1820 C.ar   88  TYR88      -0.0201
     18  CD1       14.3180   34.2130   12.8690 C.ar   88  TYR88      -0.0009
     19  CD2       13.4060   36.3730   12.5150 C.ar   88  TYR88      -0.0009
     20  CE1       15.3290   34.4900   11.9750 C.ar   88  TYR88       0.0417
     21  CE2       14.4130   36.6690   11.6190 C.ar   88  TYR88       0.0417
     22  CZ        15.3730   35.7150   11.3500 C.ar   88  TYR88       0.1957
     23  OH        16.3830   36.0030   10.4500 O.3    88  TYR88      -0.2866
     24  N         14.4880   30.4510   10.1290 N.3   101  CYS101     -0.1235
     25  CA        15.1900   30.7210    8.8680 C.3   101  CYS101      0.1677
     26  C         16.4150   29.8290    8.7490 C.2   101  CYS101      0.2270
     27  O         17.1230   29.6700    9.7410 O.2   101  CYS101     -0.2867
     28  CB        15.6090   32.1950    8.8780 C.3   101  CYS101      0.0956
     29  SG        16.6790   32.7310    7.5130 S.3   101  CYS101     -0.0801
     30  N         17.8760   32.0920    1.1600 N.3   180  SER180     -0.1217
     31  CA        17.3700   31.6080    2.4250 C.3   180  SER180      0.1889
     32  C         15.9530   31.0600    2.2800 C.2   180  SER180      0.2288
     33  O         15.1880   31.4820    1.4050 O.2   180  SER180     -0.2866
     34  CB        17.3550   32.7280    3.4760 C.3   180  SER180      0.2089
     35  OG        16.4650   33.7720    3.0630 O.3   180  SER180     -0.2183
     36  N         12.5320   30.7070    4.7470 N.3   182  VAL182     -0.1245
     37  CA        11.9710   31.1210    6.0200 C.3   182  VAL182      0.1561
     38  C         10.6570   30.3520    6.2250 C.2   182  VAL182      0.2260
     39  O          9.7680   30.4080    5.3740 O.2   182  VAL182     -0.2867
     40  CB        11.7230   32.6260    6.1620 C.3   182  VAL182      0.0252
     41  CG1       11.3020   32.9730    7.5980 C.3   182  VAL182      0.0019
     42  CG2       12.9360   33.4340    5.7450 C.3   182  VAL182      0.0019
     43  N          7.6120   30.5840    8.1480 N.3   184  ILE184     -0.1245
     44  CA         6.8510   31.4940    8.9880 C.3   184  ILE184      0.1561
     45  C          5.5080   30.9220    9.4130 C.2   184  ILE184      0.2260
     46  O          4.7500   30.4000    8.6020 O.2   184  ILE184     -0.2867
     47  CB         6.5580   32.8170    8.2590 C.3   184  ILE184      0.0252
     48  CG1        7.8070   33.4670    7.6840 C.3   184  ILE184      0.0019
     49  CG2        5.8580   33.8200    9.1940 C.3   184  ILE184      0.0019
     50  CD1        7.5340   34.6200    6.7230 C.3   184  ILE184      0.0001
     51  N          2.0380   32.0500   11.0720 N.3   186  TYR186     -0.1241
     52  CA         1.1280   33.1240   11.4960 C.3   186  TYR186      0.1605
     53  C          0.0080   32.4090   12.2380 C.2   186  TYR186      0.2264
     54  O         -0.6900   31.5970   11.6320 O.2   186  TYR186     -0.2867
     55  CB         0.5760   33.8920   10.3080 C.3   186  TYR186      0.0534
     56  CG         1.4730   34.9860    9.7730 C.ar  186  TYR186     -0.0201
     57  CD1        2.2780   34.7880    8.6590 C.ar  186  TYR186     -0.0009
     58  CD2        1.4940   36.2330   10.3840 C.ar  186  TYR186     -0.0009
     59  CE1        3.0870   35.8160    8.1850 C.ar  186  TYR186      0.0417
     60  CE2        2.3010   37.2590    9.9260 C.ar  186  TYR186      0.0417
     61  CZ         3.0880   37.0380    8.8080 C.ar  186  TYR186      0.1957
     62  OH         3.8830   38.0770    8.3620 O.3   186  TYR186     -0.2866
     63  N          2.1290   42.9420    8.4690 N.3   208  PHE208     -0.1241
     64  CA         3.4500   43.3950    8.0160 C.3   208  PHE208      0.1605
     65  C          3.2460   44.5010    6.9900 C.2   208  PHE208      0.2264
     66  O          2.4480   44.3770    6.0670 O.2   208  PHE208     -0.2867
     67  CB         4.3060   42.2400    7.4960 C.3   208  PHE208      0.0534
     68  CG         5.7550   42.5660    7.2670 C.ar  208  PHE208     -0.0203
     69  CD1        6.6290   42.6360    8.3450 C.ar  208  PHE208     -0.0042
     70  CD2        6.2590   42.7590    5.9940 C.ar  208  PHE208     -0.0042
     71  CE1        7.9700   42.9060    8.1500 C.ar  208  PHE208     -0.0003
     72  CE2        7.6000   43.0330    5.7950 C.ar  208  PHE208     -0.0003
     73  CZ         8.4610   43.1060    6.8750 C.ar  208  PHE208     -0.0000
     74  N          6.4160   47.1680    1.6740 N.3   211  HIS211     -0.1241
     75  CA         7.8530   47.0170    1.4600 C.3   211  HIS211      0.1621
     76  C          8.1200   46.4940    0.0550 C.2   211  HIS211      0.2264
     77  O          7.1990   46.0330   -0.6020 O.2   211  HIS211     -0.2867
     78  CB         8.4500   45.9970    2.4660 C.3   211  HIS211      0.0745
     79  CG         7.9380   44.6030    2.2570 C.ar  211  HIS211      0.0817
     80  ND1        6.6720   44.2260    2.6390 N.ar  211  HIS211     -0.2268
     81  CD2        8.5380   43.5190    1.6850 C.ar  211  HIS211      0.1154
     82  CE1        6.4880   42.9540    2.3380 C.ar  211  HIS211      0.1986
     83  NE2        7.5900   42.5190    1.7390 N.ar  211  HIS211     -0.2212
     84  N         10.8730   43.7330   -1.8360 N.3   213  ASP213     -0.1225
     85  CA        11.7000   42.6280   -1.3300 C.3   213  ASP213      0.1805
     86  C         13.1950   42.8510   -1.4850 C.2   213  ASP213      0.2597
     87  O         13.6770   43.4530   -2.4470 O.2   213  ASP213     -0.2718
     88  CB        11.3710   41.3210   -2.0880 C.3   213  ASP213      0.1424
     89  CG        10.0590   40.7320   -1.6390 C.2   213  ASP213      0.3668
     90  OD1        9.4340   41.3540   -0.7470 O.co2 213  ASP213     -0.2456
     91  OD2        9.6050   39.6680   -2.1040 O.co2 213  ASP213     -0.2456
     92  N         13.9110   42.2440   -0.5250 N.am  214  VAL214     -0.1980
     93  CA        15.3620   42.2060   -0.5670 C.3   214  VAL214      0.1595
     94  C         15.6730   40.8110   -1.1680 C.2   214  VAL214      0.2287
     95  O         15.7130   39.7870   -0.4940 O.2   214  VAL214     -0.2864
     96  CB        16.0530   42.3770    0.7780 C.3   214  VAL214      0.0276
     97  CG1       17.5700   42.4420    0.6640 C.3   214  VAL214      0.0022
     98  CG2       15.5700   43.6710    1.4410 C.3   214  VAL214      0.0022
     99  N         11.6580   36.4140   -5.4650 N.3   218  THR218     -0.1218
    100  CA        11.1120   35.7310   -4.2880 C.3   218  THR218      0.1862
    101  C         10.1660   34.6280   -4.7470 C.2   218  THR218      0.2287
    102  O          9.3920   34.8690   -5.6580 O.2   218  THR218     -0.2866
    103  CB        10.3610   36.7380   -3.3980 C.3   218  THR218      0.1770
    104  OG1       11.3180   37.7340   -2.9600 O.3   218  THR218     -0.2211
    105  CG2        9.7820   36.0680   -2.1590 C.3   218  THR218      0.0375
    106  N          7.5460   32.0440   -3.3070 N.3   220  LEU220     -0.1245
    107  CA         6.7650   31.8420   -2.0990 C.3   220  LEU220      0.1561
    108  C          5.6200   30.8520   -2.1180 C.2   220  LEU220      0.2260
    109  O          4.7950   30.8990   -3.0160 O.2   220  LEU220     -0.2867
    110  CB         6.1520   33.2430   -1.8110 C.3   220  LEU220      0.0270
    111  CG         5.2310   33.3420   -0.5930 C.3   220  LEU220      0.0019
    112  CD1        5.9330   33.1040    0.7270 C.3   220  LEU220      0.0001
    113  CD2        4.6040   34.7500   -0.6330 C.3   220  LEU220      0.0001
    114  N          2.3960   29.7760    0.2150 N.3   222  GLN222     -0.1245
    115  CA         1.5440   30.1670    1.3060 C.3   222  GLN222      0.1566
    116  C          0.3040   29.2590    1.3660 C.2   222  GLN222      0.2260
    117  O         -0.1300   28.7440    0.3230 O.2   222  GLN222     -0.2867
    118  CB         1.0270   31.5970    1.2240 C.3   222  GLN222      0.0367
    119  CG         2.1380   32.6580    1.1790 C.3   222  GLN222      0.0905
    120  CD         1.5200   34.0070    1.5060 C.2   222  GLN222      0.2608
    121  OE1        0.4870   34.3550    0.9230 O.2   222  GLN222     -0.2717
    122  NE2        2.1660   34.7200    2.4190 N.am  222  GLN222     -0.0878
    123  N         -4.1080   36.9590    1.9640 N.3   227  ASN227     -0.1225
    124  CA        -3.5090   37.9260    2.8830 C.3   227  ASN227      0.1785
    125  C         -2.6760   38.9870    2.2150 C.2   227  ASN227      0.2597
    126  O         -2.5860   40.1050    2.7190 O.2   227  ASN227     -0.2718
    127  CB        -2.6440   37.1690    3.9210 C.3   227  ASN227      0.1169
    128  CG        -1.4200   36.5280    3.2950 C.2   227  ASN227      0.2627
    129  OD1       -0.3120   37.0590    3.3830 O.2   227  ASN227     -0.2716
    130  ND2       -1.6230   35.4020    2.6270 N.am  227  ASN227     -0.0877
    131  N         -2.0250   38.6820    1.0800 N.am  228  LEU228     -0.1980
    132  CA        -1.1600   39.6650    0.4430 C.3   228  LEU228      0.1596
    133  C         -1.8860   40.6970   -0.3960 C.2   228  LEU228      0.2287
    134  O         -2.9030   40.3990   -1.0330 O.2   228  LEU228     -0.2864
    135  CB        -0.1590   38.9160   -0.4580 C.3   228  LEU228      0.0297
    136  CG         0.8460   38.0520    0.3260 C.3   228  LEU228      0.0022
    137  CD1        1.6140   37.1570   -0.6350 C.3   228  LEU228      0.0001
    138  CD2        1.8030   38.9380    1.0950 C.3   228  LEU228      0.0001
    139  N          4.3360   45.6320   -1.6660 N.3   267  HIS267     -0.1241
    140  CA         3.2520   44.7820   -1.1720 C.3   267  HIS267      0.1621
    141  C          3.2570   44.7710    0.3450 C.2   267  HIS267      0.2264
    142  O          4.2180   45.1700    1.0060 O.2   267  HIS267     -0.2867
    143  CB         3.3510   43.3660   -1.7680 C.3   267  HIS267      0.0745
    144  CG         4.6840   42.7330   -1.5290 C.ar  267  HIS267      0.0817
    145  ND1        5.8060   43.1220   -2.2310 N.ar  267  HIS267     -0.2268
    146  CD2        5.0950   41.7740   -0.6740 C.ar  267  HIS267      0.1154
    147  CE1        6.8500   42.4110   -1.8220 C.ar  267  HIS267      0.1986
    148  NE2        6.4330   41.5800   -0.8640 N.ar  267  HIS267     -0.2212
    149  N          1.1880   42.6810    4.0340 N.3   269  VAL269     -0.1245
    150  CA         0.4880   41.5080    4.5390 C.3   269  VAL269      0.1561
    151  C         -0.7130   41.9360    5.3890 C.2   269  VAL269      0.2260
    152  O         -0.4770   42.5600    6.4350 O.2   269  VAL269     -0.2867
    153  CB         1.4350   40.6590    5.4110 C.3   269  VAL269      0.0252
    154  CG1        0.6860   39.4820    6.0360 C.3   269  VAL269      0.0019
    155  CG2        2.6140   40.1650    4.5760 C.3   269  VAL269      0.0019
    156  N          3.5660   30.9000    5.8010 N.3   278  SER278     -0.1217
    157  CA         4.1440   31.7420    4.7390 C.3   278  SER278      0.1889
    158  C          5.5790   31.2520    4.6000 C.2   278  SER278      0.2288
    159  O          6.3730   31.3780    5.5460 O.2   278  SER278     -0.2866
    160  CB         4.0290   33.2270    5.0500 C.3   278  SER278      0.2089
    161  OG         4.5330   34.0030    3.9720 O.3   278  SER278     -0.2183
    162  N          8.6230   31.6370    2.2830 N.3   280  PRO280     -0.2116
    163  CA         9.3980   32.1900    1.2020 C.3   280  PRO280      0.1372
    164  C         10.7790   31.5740    1.0290 C.2   280  PRO280      0.2244
    165  O         11.4330   31.1380    1.9740 O.2   280  PRO280     -0.2868
    166  CB         9.5980   33.6710    1.5760 C.3   280  PRO280      0.0268
    167  CG         9.6120   33.6250    3.0710 C.3   280  PRO280      0.0207
    168  CD         8.5880   32.5760    3.4410 C.3   280  PRO280      0.0892
    169  N         14.0670   33.2180   -0.6600 N.3   282  PHE282     -0.1241
    170  CA        14.6060   34.4550   -1.2360 C.3   282  PHE282      0.1605
    171  C         15.7840   34.0860   -2.1180 C.2   282  PHE282      0.2264
    172  O         16.7880   33.5650   -1.6300 O.2   282  PHE282     -0.2867
    173  CB        14.9830   35.4160   -0.0940 C.3   282  PHE282      0.0534
    174  CG        13.7940   35.8670    0.7060 C.ar  282  PHE282     -0.0203
    175  CD1       13.5960   35.4750    2.0190 C.ar  282  PHE282     -0.0042
    176  CD2       12.8440   36.6940    0.1100 C.ar  282  PHE282     -0.0042
    177  CE1       12.4940   35.8790    2.7450 C.ar  282  PHE282     -0.0003
    178  CE2       11.7540   37.1120    0.8560 C.ar  282  PHE282     -0.0003
    179  CZ        11.5500   36.7140    2.1660 C.ar  282  PHE282     -0.0000
    180  N         18.8080   34.7830   -3.6550 N.3   284  ASN284     -0.1240
    181  CA        19.9500   35.6880   -3.5150 C.3   284  ASN284      0.1653
    182  C         21.1500   35.0940   -4.2540 C.2   284  ASN284      0.2266
    183  O         21.2460   33.8640   -4.3440 O.2   284  ASN284     -0.2867
    184  CB        20.3180   35.8620   -2.0520 C.3   284  ASN284      0.1155
    185  CG        19.2420   36.5090   -1.2070 C.2   284  ASN284      0.2627
    186  OD1       18.5610   37.4280   -1.6920 O.2   284  ASN284     -0.2716
    187  ND2       19.0280   36.0550    0.0410 N.am  284  ASN284     -0.0877
    188  N         22.6220   42.8140   -0.0840 N.3   314  LEU314     -0.1245
    189  CA        21.8850   42.0050    0.8840 C.3   314  LEU314      0.1561
    190  C         22.0740   42.4400    2.3310 C.2   314  LEU314      0.2260
    191  O         21.0860   42.6370    3.0360 O.2   314  LEU314     -0.2867
    192  CB        22.2910   40.5350    0.7090 C.3   314  LEU314      0.0270
    193  CG        21.5150   39.5440    1.5860 C.3   314  LEU314      0.0019
    194  CD1       20.0430   39.5030    1.2030 C.3   314  LEU314      0.0001
    195  CD2       22.1360   38.1560    1.4850 C.3   314  LEU314      0.0001
    196  N         18.7950   43.8640    4.3530 N.3   318  LEU318     -0.1245
    197  CA        18.1330   43.1850    5.4730 C.3   318  LEU318      0.1561
    198  C         18.0570   44.0690    6.7080 C.2   318  LEU318      0.2260
    199  O         17.0540   44.0620    7.4250 O.2   318  LEU318     -0.2867
    200  CB        18.7940   41.8350    5.7680 C.3   318  LEU318      0.0270
    201  CG        18.6800   40.8270    4.6150 C.3   318  LEU318      0.0019
    202  CD1       19.2980   39.5020    5.0010 C.3   318  LEU318      0.0001
    203  CD2       17.2350   40.6150    4.1600 C.3   318  LEU318      0.0001
    204  N         15.3490   46.7560    6.0650 N.3   321  LEU321     -0.1245
    205  CA        13.9970   46.2340    6.1960 C.3   321  LEU321      0.1561
    206  C         13.6100   46.0710    7.6590 C.2   321  LEU321      0.2260
    207  O         12.4680   46.3320    8.0420 O.2   321  LEU321     -0.2867
    208  CB        13.8980   44.9320    5.3940 C.3   321  LEU321      0.0270
    209  CG        12.5200   44.2850    5.3690 C.3   321  LEU321      0.0019
    210  CD1       11.4760   45.1830    4.7360 C.3   321  LEU321      0.0001
    211  CD2       12.6060   42.9530    4.6260 C.3   321  LEU321      0.0001
    212  N         11.4030   40.8660   12.7480 N.3   328  THR328     -0.1218
    213  CA        10.4100   39.7950   12.6910 C.3   328  THR328      0.1862
    214  C         10.7840   38.6850   13.6700 C.2   328  THR328      0.2287
    215  O          9.9870   37.7200   13.7640 O.2   328  THR328     -0.2866
    216  CB        10.2780   39.2470   11.2650 C.3   328  THR328      0.1770
    217  OG1       11.5000   38.5980   10.8790 O.3   328  THR328     -0.2211
    218  CG2        9.9480   40.3770   10.2790 C.3   328  THR328      0.0375
@<TRIPOS>BOND
     1   102   101    2
     2    99   100    1
     3   101   100    1
     4   183   182    2
     5   100   103    1
     6   182   181    1
     7   180   181    1
     8   181   184    1
     9   103   104    1
    10   103   105    1
    11   106   107    1
    12   109   108    2
    13    87    86    2
    14   145   147   ar
    15   145   144   ar
    16   171   172    2
    17   171   170    1
    18   108   107    1
    19    91    89   ar
    20   107   110    1
    21    88    89    1
    22    88    85    1
    23   184   185    1
    24    84    85    1
    25   147   148   ar
    26   110   111    1
    27   143   144    1
    28   143   140    1
    29   186   185    2
    30   139   140    1
    31    89    90   ar
    32   144   146   ar
    33    86    85    1
    34    86    92   am
    35   170   169    1
    36   170   173    1
    37   185   187   am
    38   140   141    1
    39    94    93    1
    40    94    95    2
    41   134   133    2
    42   148   146   ar
    43   137   136    1
    44   113   111    1
    45    77    76    2
    46   111   112    1
    47    93    92    1
    48    93    96    1
    49   135   136    1
    50   135   132    1
    51   133   132    1
    52   173   174    1
    53   188   189    1
    54    76    75    1
    55   176   174   ar
    56   176   178   ar
    57   114   115    1
    58   117   116    2
    59   136   138    1
    60   141   142    2
    61   132   131    1
    62    97    96    1
    63   174   175   ar
    64   192   189    1
    65   192   193    1
    66    96    98    1
    67   178   179   ar
    68   189   190    1
    69   121   120    2
    70   164   163    1
    71   164   165    2
    72   131   125   am
    73    30    31    1
    74   119   118    1
    75   119   120    1
    76   163   166    1
    77   163   162    1
    78   194   193    1
    79   118   115    1
    80   115   116    1
    81    33    32    2
    82    75    74    1
    83    75    78    1
    84   195   193    1
    85   120   122   am
    86   166   167    1
    87    81    83   ar
    88    81    79   ar
    89    83    82   ar
    90   123   124    1
    91   175   177   ar
    92   179   177   ar
    93   125   126    2
    94   125   124    1
    95    79    78    1
    96    79    80   ar
    97    32    31    1
    98   162   168    1
    99   190   191    2
   100    82    80   ar
   101    31    34    1
   102   130   128   am
   103   124   127    1
   104    35    34    1
   105   167   168    1
   106   128   129    2
   107   128   127    1
   108    11     9    1
   109    10     9    1
   110   161   160    1
   111   149   150    1
   112   203   201    1
   113     9     8    2
   114   196   197    1
   115   150   151    1
   116   150   153    1
   117   155   153    1
   118   158   157    1
   119   158   159    2
   120   201   202    1
   121   201   200    1
   122   211   209    1
   123   210   209    1
   124   157   160    1
   125   157   156    1
   126    36    37    1
   127   209   208    1
   128    39    38    2
   129   151   152    2
   130   208   205    1
   131   153   154    1
   132   197   200    1
   133   197   198    1
   134     8     7    1
   135    42    40    1
   136    72    70   ar
   137    72    73   ar
   138    70    68   ar
   139    37    40    1
   140    37    38    1
   141   204   205    1
   142    66    65    2
   143    40    41    1
   144   205   206    1
   145     7     6    1
   146   198   199    2
   147    50    48    1
   148    73    71   ar
   149    65    64    1
   150    68    67    1
   151    68    69   ar
   152    67    64    1
   153    29    28    1
   154   206   207    2
   155    48    47    1
   156     6     5    1
   157    64    63    1
   158    43    44    1
   159    71    69   ar
   160    59    57   ar
   161    59    61   ar
   162    47    44    1
   163    47    49    1
   164    62    61    1
   165     5     2    1
   166    46    45    2
   167    57    56   ar
   168    26    25    1
   169    26    27    2
   170    61    60   ar
   171    25    28    1
   172    25    24    1
   173    44    45    1
   174    56    55    1
   175    56    58   ar
   176     2     3    1
   177     2     1    1
   178    60    58   ar
   179     3     4    2
   180   218   216    1
   181    55    52    1
   182    23    22    1
   183   217   216    1
   184    51    52    1
   185   216   213    1
   186    22    21   ar
   187    22    20   ar
   188    52    53    1
   189    21    19   ar
   190    54    53    2
   191    20    18   ar
   192    19    17   ar
   193   213   212    1
   194   213   214    1
   195    18    17   ar
   196    17    16    1
   197   214   215    2
   198    16    13    1
   199    12    13    1
   200    13    14    1
   201    15    14    2
