@<TRIPOS>MOLECULE
tmp/1hbjA00.pdb
 200 200 0 0 0
SMALL
GASTEIGER

@<TRIPOS>ATOM
      1  N         -4.0100   68.8210   69.9900 N.3    69  ASP69      -0.1239
      2  CA        -3.0120   68.8820   71.0620 C.3    69  ASP69       0.1674
      3  C         -3.4420   69.8780   72.1240 C.2    69  ASP69       0.2266
      4  O         -3.6970   71.0310   71.8110 O.2    69  ASP69      -0.2867
      5  CB        -1.6790   69.3460   70.5160 C.3    69  ASP69       0.1410
      6  CG        -0.5490   69.3360   71.5660 C.2    69  ASP69       0.3668
      7  OD1       -0.6530   68.7640   72.6690 O.co2  69  ASP69      -0.2456
      8  OD2        0.5000   69.8850   71.2560 O.co2  69  ASP69      -0.2456
      9  N          3.7520   77.6170   70.2990 N.3    77  GLY77      -0.1210
     10  CA         4.5460   76.5540   69.7080 C.3    77  GLY77       0.1956
     11  C          3.7460   75.3060   69.3610 C.2    77  GLY77       0.2612
     12  O          4.0240   74.6820   68.3460 O.2    77  GLY77      -0.2717
     13  N          2.7950   74.9220   70.2140 N.am   78  SER78      -0.1952
     14  CA         1.9750   73.7690   69.9290 C.3    78  SER78       0.1924
     15  C          0.6260   74.1240   69.2370 C.2    78  SER78       0.2314
     16  O          0.2010   73.3970   68.3080 O.2    78  SER78      -0.2863
     17  CB         1.7190   72.9490   71.2070 C.3    78  SER78       0.2116
     18  OG         1.0950   73.7150   72.1900 O.3    78  SER78      -0.2180
     19  N         -0.1230   74.2970   65.3060 N.3    81  TRP81      -0.1241
     20  CA        -0.3020   73.0830   64.5010 C.3    81  TRP81       0.1605
     21  C         -1.7380   72.5420   64.5980 C.2    81  TRP81       0.2264
     22  O         -2.1520   71.7270   63.7630 O.2    81  TRP81      -0.2867
     23  CB         0.6900   71.9670   64.9250 C.3    81  TRP81       0.0550
     24  CG         2.1070   72.3930   64.8440 C.ar   81  TRP81       0.0003
     25  CD1        2.8950   72.8770   65.8650 C.ar   81  TRP81       0.0946
     26  CD2        2.9000   72.4780   63.6550 C.ar   81  TRP81       0.0152
     27  NE1        4.1510   73.2650   65.3760 N.ar   81  TRP81      -0.2442
     28  CE2        4.1730   73.0460   64.0230 C.ar   81  TRP81       0.0810
     29  CE3        2.6710   72.1430   62.3140 C.ar   81  TRP81       0.0012
     30  CZ2        5.1970   73.2840   63.0840 C.ar   81  TRP81       0.0191
     31  CZ3        3.6900   72.3760   61.3910 C.ar   81  TRP81       0.0001
     32  CH2        4.9460   72.9490   61.7920 C.ar   81  TRP81       0.0015
     33  N          1.9940   67.3480   57.1600 N.3   114  GLY114     -0.1210
     34  CA         2.3660   66.2300   58.0260 C.3   114  GLY114      0.1956
     35  C          1.3750   66.1850   59.1840 C.2   114  GLY114      0.2612
     36  O          0.3030   66.8650   59.1400 O.2   114  GLY114     -0.2717
     37  N          1.7200   65.4140   60.2200 N.am  115  GLY115     -0.1942
     38  CA         0.8520   65.2690   61.3750 C.3   115  GLY115      0.2014
     39  C          0.7030   63.8000   61.7740 C.2   115  GLY115      0.2639
     40  O         -0.3680   63.3710   62.3490 O.2   115  GLY115     -0.2714
     41  N          1.7580   63.0150   61.4690 N.am  116  GLY116     -0.1954
     42  CA         1.7670   61.5980   61.8280 C.3   116  GLY116      0.1869
     43  C          0.6260   60.7220   61.2920 C.2   116  GLY116      0.2309
     44  O          0.4180   59.6120   61.7660 O.2   116  GLY116     -0.2863
     45  N         -2.2650   61.1450   61.8250 N.3   118  TYR118     -0.1227
     46  CA        -3.3740   61.2260   62.7580 C.3   118  TYR118      0.1736
     47  C         -3.8830   62.6580   62.8910 C.2   118  TYR118      0.2596
     48  O         -4.8460   62.9030   63.6340 O.2   118  TYR118     -0.2718
     49  CB        -2.9840   60.7250   64.1730 C.3   118  TYR118      0.0548
     50  CG        -1.9510   61.5860   64.8800 C.ar  118  TYR118     -0.0200
     51  CD1       -2.3390   62.6730   65.6810 C.ar  118  TYR118     -0.0009
     52  CD2       -0.5950   61.2810   64.7880 C.ar  118  TYR118     -0.0009
     53  CE1       -1.3870   63.4450   66.4090 C.ar  118  TYR118      0.0417
     54  CE2        0.3840   62.0310   65.4890 C.ar  118  TYR118      0.0417
     55  CZ        -0.0130   63.1120   66.3090 C.ar  118  TYR118      0.1957
     56  OH         0.9440   63.7960   67.0550 O.3   118  TYR118     -0.2866
     57  N         -3.2420   63.6060   62.2160 N.am  119  SER119     -0.1938
     58  CA        -3.6800   65.0030   62.3120 C.3   119  SER119      0.2055
     59  C         -3.0580   65.7850   61.2150 C.2   119  SER119      0.2643
     60  O         -2.3030   65.2300   60.4320 O.2   119  SER119     -0.2714
     61  CB        -3.2600   65.6440   63.6570 C.3   119  SER119      0.2130
     62  OG        -1.8430   65.6080   63.8320 O.3   119  SER119     -0.2179
     63  N         -3.3510   67.0850   61.2110 N.am  120  GLY120     -0.1954
     64  CA        -2.8470   67.9800   60.1920 C.3   120  GLY120      0.1869
     65  C         -3.9500   68.7950   59.4940 C.2   120  GLY120      0.2309
     66  O         -5.1120   68.3510   59.4070 O.2   120  GLY120     -0.2863
     67  N          1.3640   77.3500   56.7840 N.3   127  TYR127     -0.1241
     68  CA         1.2890   76.8290   55.4040 C.3   127  TYR127      0.1605
     69  C          0.7120   77.8120   54.3980 C.2   127  TYR127      0.2264
     70  O          0.4180   77.4300   53.2930 O.2   127  TYR127     -0.2867
     71  CB         0.4800   75.5240   55.3090 C.3   127  TYR127      0.0534
     72  CG         0.9470   74.4010   56.1930 C.ar  127  TYR127     -0.0201
     73  CD1        2.3020   74.2630   56.5580 C.ar  127  TYR127     -0.0009
     74  CD2        0.0140   73.4850   56.7060 C.ar  127  TYR127     -0.0009
     75  CE1        2.7180   73.2300   57.4220 C.ar  127  TYR127      0.0417
     76  CE2        0.3850   72.4800   57.5500 C.ar  127  TYR127      0.0417
     77  CZ         1.7220   72.3380   57.9130 C.ar  127  TYR127      0.1957
     78  OH         2.0280   71.3160   58.7370 O.3   127  TYR127     -0.2866
     79  N          6.0460   67.4990   54.5630 N.3   196  GLU196     -0.1231
     80  CA         6.9560   67.2650   55.6770 C.3   196  GLU196      0.1699
     81  C          6.4420   66.2470   56.6980 C.2   196  GLU196      0.2593
     82  O          5.2330   66.1320   56.9210 O.2   196  GLU196     -0.2718
     83  CB         7.2790   68.6110   56.3450 C.3   196  GLU196      0.0402
     84  CG         8.2110   68.5300   57.4910 C.3   196  GLU196      0.1161
     85  CD         7.4760   68.4110   58.7930 C.2   196  GLU196      0.3649
     86  OE1        6.2370   68.5390   58.7720 O.co2 196  GLU196     -0.2457
     87  OE2        8.1230   68.2020   59.8500 O.co2 196  GLU196     -0.2457
     88  N          7.3730   65.5170   57.3230 N.am  197  SER197     -0.1938
     89  CA         7.0320   64.4800   58.3170 C.3   197  SER197      0.2055
     90  C          6.0900   63.4500   57.6000 C.2   197  SER197      0.2642
     91  O          6.4840   62.8950   56.5720 O.2   197  SER197     -0.2714
     92  CB         6.3320   65.1070   59.5080 C.3   197  SER197      0.2130
     93  OG         6.4160   64.2200   60.6060 O.3   197  SER197     -0.2179
     94  N          4.8750   63.2100   58.0910 N.am  198  ALA198     -0.1977
     95  CA         3.9970   62.2390   57.3750 C.3   198  ALA198      0.1597
     96  C          3.7630   62.6930   55.9380 C.2   198  ALA198      0.2287
     97  O          3.4380   61.8880   55.0560 O.2   198  ALA198     -0.2864
     98  CB         2.6010   62.0750   58.0770 C.3   198  ALA198      0.0319
     99  N          7.4010   54.2950   61.3320 N.3   230  TRP230     -0.1241
    100  CA         6.0740   54.6860   61.8720 C.3   230  TRP230      0.1605
    101  C          5.0470   54.9130   60.7550 C.2   230  TRP230      0.2264
    102  O          3.8340   55.0910   61.0260 O.2   230  TRP230     -0.2867
    103  CB         6.1890   55.9980   62.7000 C.3   230  TRP230      0.0550
    104  CG         7.0000   57.0610   61.9720 C.ar  230  TRP230      0.0003
    105  CD1        8.3460   57.3210   62.1410 C.ar  230  TRP230      0.0946
    106  CD2        6.5680   57.9410   60.8980 C.ar  230  TRP230      0.0152
    107  NE1        8.7790   58.2990   61.2470 N.ar  230  TRP230     -0.2442
    108  CE2        7.7150   58.7000   60.4780 C.ar  230  TRP230      0.0810
    109  CE3        5.3380   58.1650   60.2510 C.ar  230  TRP230      0.0012
    110  CZ2        7.6580   59.6810   59.4270 C.ar  230  TRP230      0.0191
    111  CZ3        5.2820   59.1470   59.1900 C.ar  230  TRP230      0.0001
    112  CH2        6.4480   59.8850   58.8010 C.ar  230  TRP230      0.0015
    113  N          6.7150   57.9220   69.1220 N.3   285  PHE285     -0.1241
    114  CA         6.8540   58.0110   67.6740 C.3   285  PHE285      0.1605
    115  C          6.1260   56.8280   66.9440 C.2   285  PHE285      0.2264
    116  O          6.6570   56.2320   65.9630 O.2   285  PHE285     -0.2867
    117  CB         8.3360   58.0680   67.2680 C.3   285  PHE285      0.0534
    118  CG         8.6350   59.0900   66.1840 C.ar  285  PHE285     -0.0203
    119  CD1        7.8900   59.1310   65.0100 C.ar  285  PHE285     -0.0042
    120  CD2        9.6900   60.0170   66.3280 C.ar  285  PHE285     -0.0042
    121  CE1        8.1840   60.0570   64.0050 C.ar  285  PHE285     -0.0003
    122  CE2        9.9740   60.9130   65.3310 C.ar  285  PHE285     -0.0003
    123  CZ         9.2090   60.9270   64.1560 C.ar  285  PHE285     -0.0000
    124  N          2.1040   55.7710   65.5940 N.3   287  PHE287     -0.1241
    125  CA         0.7550   56.2650   65.4380 C.3   287  PHE287      0.1605
    126  C         -0.1430   55.1100   65.0330 C.2   287  PHE287      0.2264
    127  O          0.2570   54.2000   64.3310 O.2   287  PHE287     -0.2867
    128  CB         0.8140   57.4270   64.4230 C.3   287  PHE287      0.0534
    129  CG         2.0510   58.2830   64.5970 C.ar  287  PHE287     -0.0203
    130  CD1        2.2460   59.0090   65.7710 C.ar  287  PHE287     -0.0042
    131  CD2        3.0330   58.3450   63.6120 C.ar  287  PHE287     -0.0042
    132  CE1        3.4080   59.7970   65.9630 C.ar  287  PHE287     -0.0003
    133  CE2        4.2050   59.1330   63.7800 C.ar  287  PHE287     -0.0003
    134  CZ         4.3980   59.8590   64.9470 C.ar  287  PHE287     -0.0000
    135  N         10.8020   66.7190   69.7760 N.3   327  PHE327     -0.1227
    136  CA         9.3840   66.8460   69.9410 C.3   327  PHE327      0.1736
    137  C          8.7160   65.6220   70.5670 C.2   327  PHE327      0.2595
    138  O          7.9720   65.7400   71.5730 O.2   327  PHE327     -0.2718
    139  CB         8.7480   67.2130   68.6020 C.3   327  PHE327      0.0547
    140  CG         7.2610   67.2410   68.6670 C.ar  327  PHE327     -0.0202
    141  CD1        6.5160   66.1060   68.3250 C.ar  327  PHE327     -0.0042
    142  CD2        6.6050   68.3750   69.1560 C.ar  327  PHE327     -0.0042
    143  CE1        5.1590   66.1090   68.4700 C.ar  327  PHE327     -0.0003
    144  CE2        5.2480   68.4050   69.3140 C.ar  327  PHE327     -0.0003
    145  CZ         4.5080   67.2970   68.9790 C.ar  327  PHE327     -0.0000
    146  N          8.9940   64.4380   70.0340 N.am  328  PHE328     -0.1976
    147  CA         8.3580   63.2580   70.5980 C.3   328  PHE328      0.1639
    148  C          8.9040   62.8630   71.9390 C.2   328  PHE328      0.2290
    149  O          8.1880   62.2470   72.7160 O.2   328  PHE328     -0.2864
    150  CB         8.3690   62.0780   69.6010 C.3   328  PHE328      0.0560
    151  CG         7.4730   62.3050   68.4350 C.ar  328  PHE328     -0.0200
    152  CD1        7.9970   62.6630   67.1970 C.ar  328  PHE328     -0.0042
    153  CD2        6.0990   62.3250   68.6140 C.ar  328  PHE328     -0.0042
    154  CE1        7.1770   63.0530   66.1440 C.ar  328  PHE328     -0.0003
    155  CE2        5.2490   62.7130   67.5750 C.ar  328  PHE328     -0.0003
    156  CZ         5.7950   63.0840   66.3220 C.ar  328  PHE328     -0.0000
    157  N          6.9430   65.1420   74.4630 N.3   331  TYR331     -0.1241
    158  CA         5.6120   64.6520   74.7040 C.3   331  TYR331      0.1605
    159  C          5.5350   63.2840   75.3660 C.2   331  TYR331      0.2264
    160  O          4.6200   63.0570   76.1630 O.2   331  TYR331     -0.2867
    161  CB         4.8230   64.6410   73.4210 C.3   331  TYR331      0.0534
    162  CG         4.2730   66.0150   73.1000 C.ar  331  TYR331     -0.0201
    163  CD1        5.1470   67.0820   72.8250 C.ar  331  TYR331     -0.0009
    164  CD2        2.8750   66.2740   73.1160 C.ar  331  TYR331     -0.0009
    165  CE1        4.6680   68.3460   72.5770 C.ar  331  TYR331      0.0417
    166  CE2        2.3880   67.5680   72.8590 C.ar  331  TYR331      0.0417
    167  CZ         3.2960   68.6040   72.5860 C.ar  331  TYR331      0.1957
    168  OH         2.8690   69.8930   72.2830 O.3   331  TYR331     -0.2866
    169  N         10.1880   77.3020   71.4100 N.3   429  TRP429     -0.1241
    170  CA        10.2800   76.0390   72.1720 C.3   429  TRP429      0.1605
    171  C         11.5820   76.1400   73.0030 C.2   429  TRP429      0.2264
    172  O         12.4810   76.9150   72.6690 O.2   429  TRP429     -0.2867
    173  CB        10.3260   74.8050   71.2330 C.3   429  TRP429      0.0550
    174  CG         8.9900   74.4470   70.5980 C.ar  429  TRP429      0.0003
    175  CD1        8.5220   74.8490   69.3750 C.ar  429  TRP429      0.0946
    176  CD2        7.9540   73.6380   71.1720 C.ar  429  TRP429      0.0152
    177  NE1        7.2530   74.3450   69.1530 N.ar  429  TRP429     -0.2442
    178  CE2        6.8820   73.5970   70.2350 C.ar  429  TRP429      0.0810
    179  CE3        7.8230   72.9550   72.3780 C.ar  429  TRP429      0.0012
    180  CZ2        5.6980   72.8990   70.4730 C.ar  429  TRP429      0.0191
    181  CZ3        6.6150   72.2400   72.6310 C.ar  429  TRP429      0.0001
    182  CH2        5.5740   72.2290   71.6720 C.ar  429  TRP429      0.0015
    183  N         14.2010   71.8640   65.8820 N.3   436  ILE436     -0.1231
    184  CA        13.0450   70.9920   65.9110 C.3   436  ILE436      0.1692
    185  C         12.3660   70.7570   64.5780 C.2   436  ILE436      0.2592
    186  O         12.4530   71.5460   63.6050 O.2   436  ILE436     -0.2718
    187  CB        11.9330   71.5910   66.8140 C.3   436  ILE436      0.0266
    188  CG1       12.4630   71.8950   68.1970 C.3   436  ILE436      0.0019
    189  CG2       10.8170   70.6250   67.0340 C.3   436  ILE436      0.0020
    190  CD1       11.2570   72.0820   69.1760 C.3   436  ILE436      0.0001
    191  N         11.6260   69.6650   64.5670 N.am  437  HIS437     -0.1976
    192  CA        10.8020   69.3470   63.4120 C.3   437  HIS437      0.1656
    193  C         10.0500   70.5660   62.9290 C.2   437  HIS437      0.2291
    194  O          9.5530   71.3660   63.7350 O.2   437  HIS437     -0.2864
    195  CB         9.7300   68.3770   63.8110 C.3   437  HIS437      0.0771
    196  CG        10.0360   66.9730   63.4510 C.ar  437  HIS437      0.0820
    197  ND1       10.5570   66.0810   64.3580 N.ar  437  HIS437     -0.2267
    198  CD2        9.7900   66.2780   62.3150 C.ar  437  HIS437      0.1154
    199  CE1       10.6010   64.8840   63.7970 C.ar  437  HIS437      0.1986
    200  NE2       10.1360   64.9790   62.5600 N.ar  437  HIS437     -0.2212
@<TRIPOS>BOND
     1    70    69    2
     2    69    68    1
     3    79    80    1
     4    97    96    2
     5    71    68    1
     6    71    72    1
     7    68    67    1
     8    80    83    1
     9    80    81    1
    10    96    95    1
    11    72    73   ar
    12    72    74   ar
    13    83    84    1
    14    73    75   ar
    15    91    90    2
    16    81    82    2
    17    81    88   am
    18    74    76   ar
    19    33    34    1
    20    88    89    1
    21    95    98    1
    22    95    94    1
    23    75    77   ar
    24    84    85    1
    25    76    77   ar
    26    90    94   am
    27    90    89    1
    28    77    78    1
    29    34    35    1
    30    89    92    1
    31    86    85   ar
    32    85    87   ar
    33   112   111   ar
    34   112   110   ar
    35    36    35    2
    36    35    37   am
    37   111   109   ar
    38    66    65    2
    39   110   108   ar
    40    65    64    1
    41    92    93    1
    42    64    63    1
    43    37    38    1
    44   109   106   ar
    45    60    59    2
    46   108   106   ar
    47   108   107   ar
    48   101   102    2
    49   101   100    1
    50   106   104   ar
    51    63    59   am
    52    59    58    1
    53   107   105   ar
    54    43    44    2
    55    43    42    1
    56    99   100    1
    57    38    39    1
    58    31    32   ar
    59    31    29   ar
    60    41    39   am
    61    41    42    1
    62    39    40    2
    63    32    30   ar
    64    45    46    1
    65   100   103    1
    66   104   105   ar
    67   104   103    1
    68    57    58    1
    69    57    47   am
    70    58    61    1
    71    29    26   ar
    72   198   200   ar
    73   198   196   ar
    74   200   199   ar
    75    46    47    1
    76    46    49    1
    77    47    48    2
    78   193   192    1
    79   193   194    2
    80    30    28   ar
    81   192   195    1
    82   192   191    1
    83   196   195    1
    84   196   197   ar
    85   186   185    2
    86   131   133   ar
    87   131   129   ar
    88    26    28   ar
    89    26    24   ar
    90    61    62    1
    91    22    21    2
    92   133   134   ar
    93   199   197   ar
    94   121   123   ar
    95   121   119   ar
    96    28    27   ar
    97   123   122   ar
    98    49    50    1
    99   127   126    2
   100   128   129    1
   101   128   125    1
   102    20    21    1
   103    20    23    1
   104    20    19    1
   105   191   185   am
   106   185   184    1
   107   129   130   ar
   108    52    50   ar
   109    52    54   ar
   110    24    23    1
   111    24    25   ar
   112    50    51   ar
   113   134   132   ar
   114   119   118   ar
   115   126   125    1
   116   122   120   ar
   117    27    25   ar
   118   125   124    1
   119    54    55   ar
   120    51    53   ar
   121   130   132   ar
   122   183   184    1
   123   184   187    1
   124   116   115    2
   125   154   156   ar
   126   154   152   ar
   127   118   120   ar
   128   118   117    1
   129    55    53   ar
   130    55    56    1
   131   156   155   ar
   132   187   189    1
   133   187   188    1
   134   115   114    1
   135   152   151   ar
   136   117   114    1
   137   155   153   ar
   138   114   113    1
   139   188   190    1
   140    16    15    2
   141   141   143   ar
   142   141   140   ar
   143    12    11    2
   144   151   153   ar
   145   151   150    1
   146   143   145   ar
   147   139   140    1
   148   139   136    1
   149   140   142   ar
   150   145   144   ar
   151   177   175   ar
   152   177   178   ar
   153   142   144   ar
   154    15    14    1
   155    11    10    1
   156    11    13   am
   157   175   174   ar
   158   150   147    1
   159    10     9    1
   160   135   136    1
   161    14    13    1
   162    14    17    1
   163   136   137    1
   164     1     2    1
   165   146   137   am
   166   146   147    1
   167   178   180   ar
   168   178   176   ar
   169   180   182   ar
   170     5     2    1
   171     5     6    1
   172   137   138    2
   173   174   176   ar
   174   174   173    1
   175   147   148    1
   176     2     3    1
   177   176   179   ar
   178    17    18    1
   179   173   170    1
   180     8     6   ar
   181   169   170    1
   182     6     7   ar
   183   182   181   ar
   184     4     3    2
   185   148   149    2
   186   170   171    1
   187   168   167    1
   188   179   181   ar
   189   165   167   ar
   190   165   163   ar
   191   167   166   ar
   192   172   171    2
   193   163   162   ar
   194   166   164   ar
   195   162   164   ar
   196   162   161    1
   197   161   158    1
   198   157   158    1
   199   158   159    1
   200   159   160    2
