@<TRIPOS>MOLECULE
tmp/1hbkA01.pdb
 115 108 0 0 0
SMALL
GASTEIGER

@<TRIPOS>ATOM
      1  N          6.5660   19.7150   17.6290 N.3    13  ILE13      -0.1231
      2  CA         5.3630   19.0060   17.1990 C.3    13  ILE13       0.1692
      3  C          4.8160   19.7180   15.9450 C.2    13  ILE13       0.2592
      4  O          4.5550   19.1010   14.9240 O.2    13  ILE13      -0.2718
      5  CB         4.2900   19.0030   18.3460 C.3    13  ILE13       0.0266
      6  CG1        4.7350   18.0700   19.4770 C.3    13  ILE13       0.0019
      7  CG2        2.9360   18.5850   17.8150 C.3    13  ILE13       0.0020
      8  CD1        4.9140   16.6380   19.0580 C.3    13  ILE13       0.0001
      9  N          4.6500   21.0290   16.0440 N.am   14  ASN14      -0.1974
     10  CA         4.1470   21.8120   14.9280 C.3    14  ASN14       0.1688
     11  C          4.9250   21.5450   13.6400 C.2    14  ASN14       0.2292
     12  O          4.3610   21.6110   12.5370 O.2    14  ASN14      -0.2864
     13  CB         4.2210   23.3000   15.2600 C.3    14  ASN14       0.1181
     14  CG         3.1950   23.7100   16.2770 C.2    14  ASN14       0.2629
     15  OD1        2.2890   22.9430   16.5930 O.2    14  ASN14      -0.2716
     16  ND2        3.3160   24.9250   16.7900 N.am   14  ASN14      -0.0877
     17  N          6.5540   18.6470   12.7510 N.3    16  LEU16      -0.1245
     18  CA         6.5960   17.2670   12.2730 C.3    16  LEU16       0.1561
     19  C          6.2450   17.1480   10.8000 C.2    16  LEU16       0.2260
     20  O          5.3670   17.8570   10.2980 O.2    16  LEU16      -0.2867
     21  CB         5.6400   16.3840   13.0860 C.3    16  LEU16       0.0270
     22  CG         6.0530   15.9590   14.5080 C.3    16  LEU16       0.0019
     23  CD1        4.9560   15.0890   15.1020 C.3    16  LEU16       0.0001
     24  CD2        7.3760   15.1740   14.4830 C.3    16  LEU16       0.0001
     25  N         -0.2360   10.4110   14.2910 N.3    22  LEU22      -0.1245
     26  CA        -0.3460    9.8010   15.6090 C.3    22  LEU22       0.1561
     27  C         -1.7700    9.3650   15.9060 C.2    22  LEU22       0.2260
     28  O         -2.7270    9.9470   15.4010 O.2    22  LEU22      -0.2867
     29  CB         0.1030   10.7990   16.6790 C.3    22  LEU22       0.0270
     30  CG         1.5800   11.1880   16.8160 C.3    22  LEU22       0.0019
     31  CD1        2.3030   11.0990   15.4900 C.3    22  LEU22       0.0001
     32  CD2        1.6530   12.6150   17.3590 C.3    22  LEU22       0.0001
     33  N         -5.4220    9.0200   17.5270 N.3    24  ASN24      -0.1240
     34  CA        -6.3120   10.0120   18.1040 C.3    24  ASN24       0.1653
     35  C         -6.2840   10.1980   19.6220 C.2    24  ASN24       0.2266
     36  O         -6.3430   11.3270   20.0970 O.2    24  ASN24      -0.2867
     37  CB        -7.7480    9.7480   17.6160 C.3    24  ASN24       0.1155
     38  CG        -8.0070   10.3260   16.2210 C.2    24  ASN24       0.2627
     39  OD1       -7.0770   10.6010   15.4520 O.2    24  ASN24      -0.2716
     40  ND2       -9.2710   10.5020   15.8880 N.am   24  ASN24      -0.0877
     41  N         -3.2970   12.1700   20.2470 N.3    27  LYS27      -0.1231
     42  CA        -3.4620   13.5300   19.7900 C.3    27  LYS27       0.1693
     43  C         -4.3270   14.2960   20.7760 C.2    27  LYS27       0.2591
     44  O         -4.0570   15.4500   21.0740 O.2    27  LYS27      -0.2718
     45  CB        -4.1020   13.5790   18.3980 C.3    27  LYS27       0.0285
     46  CG        -3.0850   13.4450   17.2840 C.3    27  LYS27       0.0035
     47  CD        -3.7130   13.5220   15.9210 C.3    27  LYS27       0.0206
     48  CE        -4.5630   12.3070   15.6860 C.3    27  LYS27       0.1093
     49  NZ        -4.7670   12.1190   14.2360 N.3    27  LYS27      -0.1314
     50  N         -5.3630   13.6460   21.2820 N.am   28  LEU28      -0.1980
     51  CA        -6.2470   14.3060   22.2320 C.3    28  LEU28       0.1596
     52  C         -5.5410   14.6830   23.5130 C.2    28  LEU28       0.2287
     53  O         -5.8530   15.7240   24.1140 O.2    28  LEU28      -0.2864
     54  CB        -7.4080   13.4090   22.6150 C.3    28  LEU28       0.0297
     55  CG        -8.7750   13.6520   22.0260 C.3    28  LEU28       0.0022
     56  CD1       -9.7180   12.7710   22.8680 C.3    28  LEU28       0.0001
     57  CD2       -9.1820   15.1310   22.0840 C.3    28  LEU28       0.0001
     58  N         -2.3130   15.2710   23.8400 N.3    30  LEU30      -0.1231
     59  CA        -1.4330   16.3990   23.5170 C.3    30  LEU30       0.1693
     60  C         -2.2700   17.6760   23.4520 C.2    30  LEU30       0.2592
     61  O         -1.8930   18.7380   23.9870 O.2    30  LEU30      -0.2718
     62  CB        -0.7370   16.1680   22.1610 C.3    30  LEU30       0.0284
     63  CG         0.4220   15.1740   22.0880 C.3    30  LEU30       0.0019
     64  CD1        1.0170   15.1810   20.6680 C.3    30  LEU30       0.0001
     65  CD2        1.5100   15.6090   23.0940 C.3    30  LEU30       0.0001
     66  N         -3.4240   17.5570   22.7990 N.am   31  TYR31      -0.1976
     67  CA        -4.3620   18.6770   22.6690 C.3    31  TYR31       0.1639
     68  C         -4.8300   19.2890   24.0080 C.2    31  TYR31       0.2290
     69  O         -4.7640   20.5260   24.2200 O.2    31  TYR31      -0.2864
     70  CB        -5.6090   18.2290   21.8790 C.3    31  TYR31       0.0560
     71  CG        -6.6880   19.2920   21.8670 C.ar   31  TYR31      -0.0198
     72  CD1       -6.5730   20.4120   21.0480 C.ar   31  TYR31      -0.0009
     73  CD2       -7.7880   19.2040   22.7040 C.ar   31  TYR31      -0.0009
     74  CE1       -7.5260   21.4100   21.0660 C.ar   31  TYR31       0.0417
     75  CE2       -8.7510   20.1950   22.7340 C.ar   31  TYR31       0.0417
     76  CZ        -8.6120   21.2930   21.9140 C.ar   31  TYR31       0.1957
     77  OH        -9.5330   22.2920   21.9420 O.3    31  TYR31      -0.2866
     78  N        -16.2770   15.4030   17.0250 N.3    53  ILE53      -0.1245
     79  CA       -14.8910   15.7330   17.3170 C.3    53  ILE53       0.1561
     80  C        -14.7440   16.9810   18.1590 C.2    53  ILE53       0.2260
     81  O        -14.0030   16.9760   19.1330 O.2    53  ILE53      -0.2867
     82  CB       -14.0600   15.8750   16.0260 C.3    53  ILE53       0.0252
     83  CG1      -14.0880   14.5470   15.2730 C.3    53  ILE53       0.0019
     84  CG2      -12.6090   16.2440   16.3580 C.3    53  ILE53       0.0019
     85  CD1      -13.8120   13.3260   16.1670 C.3    53  ILE53       0.0001
     86  N        -15.4660   16.0370   21.5760 N.3    56  LYS56      -0.1231
     87  CA       -14.3990   15.2470   22.1840 C.3    56  LYS56       0.1693
     88  C        -13.2620   16.1390   22.6370 C.2    56  LYS56       0.2591
     89  O        -12.6350   15.8740   23.6440 O.2    56  LYS56      -0.2718
     90  CB       -13.7980   14.2360   21.1960 C.3    56  LYS56       0.0285
     91  CG       -14.7020   13.0970   20.8080 C.3    56  LYS56       0.0035
     92  CD       -13.9250   11.8080   20.9270 C.3    56  LYS56       0.0206
     93  CE       -13.4310   11.6790   22.3410 C.3    56  LYS56       0.1093
     94  NZ       -14.5940   11.8180   23.2760 N.3    56  LYS56      -0.1314
     95  N        -12.9710   17.1650   21.8420 N.am   57  LYS57      -0.1980
     96  CA       -11.8910   18.0890   22.1590 C.3    57  LYS57       0.1596
     97  C        -12.2930   18.8710   23.3930 C.2    57  LYS57       0.2287
     98  O        -11.4980   19.0540   24.3170 O.2    57  LYS57      -0.2864
     99  CB       -11.6300   19.0180   20.9620 C.3    57  LYS57       0.0298
    100  CG       -10.9810   18.2720   19.8010 C.3    57  LYS57       0.0038
    101  CD       -11.0100   19.0640   18.5050 C.3    57  LYS57       0.0206
    102  CE       -10.1810   20.3090   18.6150 C.3    57  LYS57       0.1093
    103  NZ       -10.0730   21.0080   17.3170 N.3    57  LYS57      -0.1314
    104  N          2.5790   17.5050   28.7730 N.3    76  TYR76      -0.1241
    105  CA         2.6770   17.5940   27.3160 C.3    76  TYR76       0.1605
    106  C          4.0720   17.1070   26.8950 C.2    76  TYR76       0.2264
    107  O          4.2210   16.2050   26.0410 O.2    76  TYR76      -0.2867
    108  CB         2.4890   19.0550   26.8740 C.3    76  TYR76       0.0534
    109  CG         2.4500   19.2720   25.3680 C.ar   76  TYR76      -0.0201
    110  CD1        3.6200   19.4020   24.6290 C.ar   76  TYR76      -0.0009
    111  CD2        1.2270   19.3080   24.6750 C.ar   76  TYR76      -0.0009
    112  CE1        3.5840   19.5520   23.2230 C.ar   76  TYR76       0.0417
    113  CE2        1.1810   19.4720   23.2640 C.ar   76  TYR76       0.0417
    114  CZ         2.3620   19.5830   22.5520 C.ar   76  TYR76       0.1957
    115  OH         2.3300   19.6630   21.1700 O.3    76  TYR76      -0.2866
@<TRIPOS>BOND
     1    20    19    2
     2    19    18    1
     3    18    17    1
     4    18    21    1
     5    12    11    2
     6    21    22    1
     7    11    10    1
     8    49    48    1
     9    25    26    1
    10    24    22    1
    11    22    23    1
    12     4     3    2
    13    10    13    1
    14    10     9    1
    15    13    14    1
    16    83    82    1
    17    83    85    1
    18    28    27    2
    19    39    38    2
    20    31    30    1
    21    26    27    1
    22    26    29    1
    23    48    47    1
    24    40    38   am
    25    47    46    1
    26     3     9   am
    27     3     2    1
    28    82    84    1
    29    82    79    1
    30    38    37    1
    31    14    15    2
    32    14    16   am
    33    29    30    1
    34    30    32    1
    35    78    79    1
    36     2     1    1
    37     2     5    1
    38    46    45    1
    39    79    80    1
    40   103   102    1
    41    33    34    1
    42    37    34    1
    43     7     5    1
    44    34    35    1
    45    80    81    2
    46     5     6    1
    47    45    42    1
    48   101   102    1
    49   101   100    1
    50     8     6    1
    51    35    36    2
    52    42    41    1
    53    42    43    1
    54   100    99    1
    55    64    63    1
    56    43    44    2
    57    43    50   am
    58    91    92    1
    59    91    90    1
    60    92    93    1
    61    99    96    1
    62    72    74   ar
    63    72    71   ar
    64    74    76   ar
    65   115   114    1
    66    90    87    1
    67    50    51    1
    68    86    87    1
    69    95    96    1
    70    95    88   am
    71    71    70    1
    72    71    73   ar
    73    70    67    1
    74    76    77    1
    75    76    75   ar
    76    55    57    1
    77    55    54    1
    78    55    56    1
    79    63    62    1
    80    63    65    1
    81    96    97    1
    82    62    59    1
    83    87    88    1
    84    51    54    1
    85    51    52    1
    86    93    94    1
    87   114   112   ar
    88   114   113   ar
    89    88    89    2
    90    67    66    1
    91    67    68    1
    92    73    75   ar
    93    66    60   am
    94   112   110   ar
    95   113   111   ar
    96    97    98    2
    97    60    59    1
    98    60    61    2
    99    52    53    2
   100    59    58    1
   101    68    69    2
   102   110   109   ar
   103   111   109   ar
   104   109   108    1
   105   107   106    2
   106   108   105    1
   107   106   105    1
   108   105   104    1
