@<TRIPOS>MOLECULE
tmp/1hbkA00.pdb
 115 112 0 0 0
SMALL
GASTEIGER

@<TRIPOS>ATOM
      1  N          6.3710   22.2720   21.5430 N.3    10  VAL10      -0.1245
      2  CA         5.2350   22.6600   20.7070 C.3    10  VAL10       0.1561
      3  C          5.7510   22.8850   19.2900 C.2    10  VAL10       0.2260
      4  O          5.1880   22.3560   18.3250 O.2    10  VAL10      -0.2867
      5  CB         4.6070   23.9450   21.2670 C.3    10  VAL10       0.0252
      6  CG1        3.8180   24.7030   20.1810 C.3    10  VAL10       0.0019
      7  CG2        3.7230   23.5740   22.4520 C.3    10  VAL10       0.0019
      8  N          6.5660   19.7150   17.6290 N.3    13  ILE13      -0.1231
      9  CA         5.3630   19.0060   17.1990 C.3    13  ILE13       0.1692
     10  C          4.8160   19.7180   15.9450 C.2    13  ILE13       0.2592
     11  O          4.5550   19.1010   14.9240 O.2    13  ILE13      -0.2718
     12  CB         4.2900   19.0030   18.3460 C.3    13  ILE13       0.0266
     13  CG1        4.7350   18.0700   19.4770 C.3    13  ILE13       0.0019
     14  CG2        2.9360   18.5850   17.8150 C.3    13  ILE13       0.0020
     15  CD1        4.9140   16.6380   19.0580 C.3    13  ILE13       0.0001
     16  N          4.6500   21.0290   16.0440 N.am   14  ASN14      -0.1974
     17  CA         4.1470   21.8120   14.9280 C.3    14  ASN14       0.1688
     18  C          4.9250   21.5450   13.6400 C.2    14  ASN14       0.2292
     19  O          4.3610   21.6110   12.5370 O.2    14  ASN14      -0.2864
     20  CB         4.2210   23.3000   15.2600 C.3    14  ASN14       0.1181
     21  CG         3.1950   23.7100   16.2770 C.2    14  ASN14       0.2629
     22  OD1        2.2890   22.9430   16.5930 O.2    14  ASN14      -0.2716
     23  ND2        3.3160   24.9250   16.7900 N.am   14  ASN14      -0.0877
     24  N         -2.3130   15.2710   23.8400 N.3    30  LEU30      -0.1231
     25  CA        -1.4330   16.3990   23.5170 C.3    30  LEU30       0.1693
     26  C         -2.2700   17.6760   23.4520 C.2    30  LEU30       0.2592
     27  O         -1.8930   18.7380   23.9870 O.2    30  LEU30      -0.2718
     28  CB        -0.7370   16.1680   22.1610 C.3    30  LEU30       0.0284
     29  CG         0.4220   15.1740   22.0880 C.3    30  LEU30       0.0019
     30  CD1        1.0170   15.1810   20.6680 C.3    30  LEU30       0.0001
     31  CD2        1.5100   15.6090   23.0940 C.3    30  LEU30       0.0001
     32  N         -3.4240   17.5570   22.7990 N.am   31  TYR31      -0.1976
     33  CA        -4.3620   18.6770   22.6690 C.3    31  TYR31       0.1639
     34  C         -4.8300   19.2890   24.0080 C.2    31  TYR31       0.2290
     35  O         -4.7640   20.5260   24.2200 O.2    31  TYR31      -0.2864
     36  CB        -5.6090   18.2290   21.8790 C.3    31  TYR31       0.0560
     37  CG        -6.6880   19.2920   21.8670 C.ar   31  TYR31      -0.0198
     38  CD1       -6.5730   20.4120   21.0480 C.ar   31  TYR31      -0.0009
     39  CD2       -7.7880   19.2040   22.7040 C.ar   31  TYR31      -0.0009
     40  CE1       -7.5260   21.4100   21.0660 C.ar   31  TYR31       0.0417
     41  CE2       -8.7510   20.1950   22.7340 C.ar   31  TYR31       0.0417
     42  CZ        -8.6120   21.2930   21.9140 C.ar   31  TYR31       0.1957
     43  OH        -9.5330   22.2920   21.9420 O.3    31  TYR31      -0.2866
     44  N         -2.0460   20.9170   25.7980 N.3    34  TYR34      -0.1227
     45  CA        -1.6780   22.1070   25.0510 C.3    34  TYR34       0.1736
     46  C         -2.6470   23.2410   25.4530 C.2    34  TYR34       0.2595
     47  O         -2.2300   24.3540   25.7940 O.2    34  TYR34      -0.2718
     48  CB        -1.7750   21.8380   23.5490 C.3    34  TYR34       0.0548
     49  CG        -1.4990   23.0630   22.7240 C.ar   34  TYR34      -0.0200
     50  CD1       -0.1970   23.4530   22.4270 C.ar   34  TYR34      -0.0009
     51  CD2       -2.5490   23.8860   22.3100 C.ar   34  TYR34      -0.0009
     52  CE1        0.0540   24.6440   21.7360 C.ar   34  TYR34       0.0417
     53  CE2       -2.3110   25.0680   21.6280 C.ar   34  TYR34       0.0417
     54  CZ        -1.0110   25.4410   21.3410 C.ar   34  TYR34       0.1957
     55  OH        -0.7860   26.6000   20.6440 O.3    34  TYR34      -0.2866
     56  N         -3.9460   22.9760   25.4040 N.am   35  LYS35      -0.1980
     57  CA        -4.9130   24.0050   25.7840 C.3    35  LYS35       0.1596
     58  C         -4.7690   24.4780   27.2400 C.2    35  LYS35       0.2287
     59  O         -4.7920   25.6710   27.5040 O.2    35  LYS35      -0.2864
     60  CB        -6.3500   23.5010   25.5630 C.3    35  LYS35       0.0298
     61  CG        -6.6560   23.1250   24.1120 C.3    35  LYS35       0.0038
     62  CD        -6.4150   24.2620   23.1060 C.3    35  LYS35       0.0206
     63  CE        -7.4760   25.3620   23.2460 C.3    35  LYS35       0.1093
     64  NZ        -7.4470   26.2930   22.0880 N.3    35  LYS35      -0.1314
     65  N        -16.2770   15.4030   17.0250 N.3    53  ILE53      -0.1231
     66  CA       -14.8910   15.7330   17.3170 C.3    53  ILE53       0.1692
     67  C        -14.7440   16.9810   18.1590 C.2    53  ILE53       0.2592
     68  O        -14.0030   16.9760   19.1330 O.2    53  ILE53      -0.2718
     69  CB       -14.0600   15.8750   16.0260 C.3    53  ILE53       0.0266
     70  CG1      -14.0880   14.5470   15.2730 C.3    53  ILE53       0.0019
     71  CG2      -12.6090   16.2440   16.3580 C.3    53  ILE53       0.0020
     72  CD1      -13.8120   13.3260   16.1670 C.3    53  ILE53       0.0001
     73  N        -15.4480   18.0450   17.7880 N.am   54  ASP54      -0.1974
     74  CA       -15.3750   19.2710   18.5620 C.3    54  ASP54       0.1709
     75  C        -15.7700   18.9610   19.9990 C.2    54  ASP54       0.2293
     76  O        -15.1740   19.4810   20.9390 O.2    54  ASP54      -0.2864
     77  CB       -16.2960   20.3450   17.9670 C.3    54  ASP54       0.1436
     78  CG       -15.9120   20.7130   16.5360 C.2    54  ASP54       0.3671
     79  OD1      -14.7210   20.5580   16.1660 O.co2  54  ASP54      -0.2456
     80  OD2      -16.7940   21.1630   15.7730 O.co2  54  ASP54      -0.2456
     81  N        -12.9710   17.1650   21.8420 N.3    57  LYS57      -0.1245
     82  CA       -11.8910   18.0890   22.1590 C.3    57  LYS57       0.1561
     83  C        -12.2930   18.8710   23.3930 C.2    57  LYS57       0.2260
     84  O        -11.4980   19.0540   24.3170 O.2    57  LYS57      -0.2867
     85  CB       -11.6300   19.0180   20.9620 C.3    57  LYS57       0.0271
     86  CG       -10.9810   18.2720   19.8010 C.3    57  LYS57       0.0035
     87  CD       -11.0100   19.0640   18.5050 C.3    57  LYS57       0.0206
     88  CE       -10.1810   20.3090   18.6150 C.3    57  LYS57       0.1093
     89  NZ       -10.0730   21.0080   17.3170 N.3    57  LYS57      -0.1314
     90  N        -10.2360   18.7560   27.1280 N.3    61  TRP61      -0.1241
     91  CA        -9.7850   19.9870   27.7600 C.3    61  TRP61       0.1605
     92  C        -10.4510   20.1670   29.1470 C.2    61  TRP61       0.2264
     93  O         -9.7800   20.4210   30.1590 O.2    61  TRP61      -0.2867
     94  CB       -10.1210   21.1690   26.8400 C.3    61  TRP61       0.0550
     95  CG        -9.5030   22.4610   27.2680 C.ar   61  TRP61       0.0003
     96  CD1       -8.6430   22.6530   28.3090 C.ar   61  TRP61       0.0946
     97  CD2       -9.7490   23.7510   26.7080 C.ar   61  TRP61       0.0152
     98  NE1       -8.3470   23.9800   28.4420 N.ar   61  TRP61      -0.2442
     99  CE2       -9.0050   24.6830   27.4710 C.ar   61  TRP61       0.0810
    100  CE3      -10.5300   24.2160   25.6360 C.ar   61  TRP61       0.0012
    101  CZ2       -9.0180   26.0610   27.1980 C.ar   61  TRP61       0.0191
    102  CZ3      -10.5450   25.5840   25.3660 C.ar   61  TRP61       0.0001
    103  CH2       -9.7920   26.4880   26.1480 C.ar   61  TRP61       0.0015
    104  N          2.5790   17.5050   28.7730 N.3    76  TYR76      -0.1241
    105  CA         2.6770   17.5940   27.3160 C.3    76  TYR76       0.1605
    106  C          4.0720   17.1070   26.8950 C.2    76  TYR76       0.2264
    107  O          4.2210   16.2050   26.0410 O.2    76  TYR76      -0.2867
    108  CB         2.4890   19.0550   26.8740 C.3    76  TYR76       0.0534
    109  CG         2.4500   19.2720   25.3680 C.ar   76  TYR76      -0.0201
    110  CD1        3.6200   19.4020   24.6290 C.ar   76  TYR76      -0.0009
    111  CD2        1.2270   19.3080   24.6750 C.ar   76  TYR76      -0.0009
    112  CE1        3.5840   19.5520   23.2230 C.ar   76  TYR76       0.0417
    113  CE2        1.1810   19.4720   23.2640 C.ar   76  TYR76       0.0417
    114  CZ         2.3620   19.5830   22.5520 C.ar   76  TYR76       0.1957
    115  OH         2.3300   19.6630   21.1700 O.3    76  TYR76      -0.2866
@<TRIPOS>BOND
     1    19    18    2
     2    18    17    1
     3    11    10    2
     4    17    20    1
     5    17    16    1
     6    20    21    1
     7    70    69    1
     8    70    72    1
     9    80    78   ar
    10    10    16   am
    11    10     9    1
    12    69    71    1
    13    69    66    1
    14    79    78   ar
    15    21    22    2
    16    21    23   am
    17    78    77    1
    18    65    66    1
    19     9     8    1
    20     9    12    1
    21    66    67    1
    22    89    88    1
    23    73    67   am
    24    73    74    1
    25    14    12    1
    26    77    74    1
    27    67    68    2
    28     4     3    2
    29    12    13    1
    30    87    88    1
    31    87    86    1
    32    74    75    1
    33    15    13    1
    34     3     2    1
    35    86    85    1
    36    75    76    2
    37     6     5    1
    38    55    54    1
    39    30    29    1
    40     2     5    1
    41     2     1    1
    42    85    82    1
    43    38    40   ar
    44    38    37   ar
    45    40    42   ar
    46   115   114    1
    47     5     7    1
    48    54    53   ar
    49    54    52   ar
    50    53    51   ar
    51    52    50   ar
    52    81    82    1
    53    37    36    1
    54    37    39   ar
    55    36    33    1
    56    42    43    1
    57    42    41   ar
    58    29    28    1
    59    29    31    1
    60    64    63    1
    61    82    83    1
    62    28    25    1
    63    51    49   ar
    64    50    49   ar
    65   114   112   ar
    66   114   113   ar
    67    33    32    1
    68    33    34    1
    69    39    41   ar
    70    49    48    1
    71    32    26   am
    72    62    63    1
    73    62    61    1
    74   112   110   ar
    75   113   111   ar
    76    83    84    2
    77    26    25    1
    78    26    27    2
    79    25    24    1
    80    48    45    1
    81    34    35    2
    82    61    60    1
    83   110   109   ar
    84   111   109   ar
    85    45    46    1
    86    45    44    1
    87   102   100   ar
    88   102   103   ar
    89   109   108    1
    90    56    46   am
    91    56    57    1
    92    46    47    2
    93    60    57    1
    94   100    97   ar
    95    57    58    1
    96   107   106    2
    97   103   101   ar
    98    97    95   ar
    99    97    99   ar
   100    94    95    1
   101    94    91    1
   102   108   105    1
   103   106   105    1
   104    90    91    1
   105   101    99   ar
   106    58    59    2
   107    95    96   ar
   108   105   104    1
   109    99    98   ar
   110    91    92    1
   111    96    98   ar
   112    92    93    2
