@<TRIPOS>MOLECULE
tmp/1hbmA01.pdb
 107 104 0 0 0
SMALL
GASTEIGER

@<TRIPOS>ATOM
      1  N         19.3300   40.7380  -26.0770 N.3   268  ARG268     -0.1245
      2  CA        20.0990   40.8440  -24.8110 C.3   268  ARG268      0.1563
      3  C         21.3150   39.9190  -24.7860 C.2   268  ARG268      0.2260
      4  O         22.3610   40.3620  -24.2110 O.2   268  ARG268     -0.2867
      5  CB        19.1830   40.6410  -23.5790 C.3   268  ARG268      0.0307
      6  CG        19.9430   41.0010  -22.2650 C.3   268  ARG268      0.0489
      7  CD        18.9980   40.7640  -21.0460 C.3   268  ARG268      0.2205
      8  NE        18.0280   41.8730  -21.0060 N.pl3 268  ARG268     -0.0865
      9  CZ        18.2270   43.0650  -20.4790 C.cat 268  ARG268      0.5346
     10  NH1       17.2760   43.9870  -20.5760 N.pl3 268  ARG268      0.1354
     11  NH2       19.3460   43.3920  -19.8320 N.pl3 268  ARG268      0.1354
     12  N         27.4920   28.8150  -20.5080 N.3   317  LEU317     -0.1245
     13  CA        27.2200   29.6970  -19.3620 C.3   317  LEU317      0.1561
     14  C         28.4760   30.2400  -18.6890 C.2   317  LEU317      0.2260
     15  O         28.4570   31.4200  -18.2820 O.2   317  LEU317     -0.2867
     16  CB        26.3340   28.9520  -18.3340 C.3   317  LEU317      0.0270
     17  CG        24.8880   28.7750  -18.8170 C.3   317  LEU317      0.0019
     18  CD1       24.0900   27.9290  -17.8410 C.3   317  LEU317      0.0001
     19  CD2       24.1750   30.0930  -19.0900 C.3   317  LEU317      0.0001
     20  N         28.4460   33.4810  -21.7230 N.3   321  MET321     -0.1230
     21  CA        27.5060   34.2650  -20.9200 C.3   321  MET321      0.1702
     22  C         28.1050   34.7880  -19.6120 C.2   321  MET321      0.2593
     23  O         27.4040   35.5160  -18.8930 O.2   321  MET321     -0.2718
     24  CB        26.2600   33.4040  -20.5940 C.3   321  MET321      0.0401
     25  CG        25.3740   33.1160  -21.8150 C.3   321  MET321      0.0596
     26  SD        24.7740   34.5790  -22.6480 S.3   321  MET321     -0.1393
     27  CE        23.9360   35.5080  -21.3630 C.3   321  MET321      0.0692
     28  N         29.3830   34.5440  -19.3420 N.am  322  SER322     -0.1952
     29  CA        30.0050   35.1250  -18.1400 C.3   322  SER322      0.1924
     30  C         31.5180   35.1940  -18.3150 C.2   322  SER322      0.2314
     31  O         31.9670   36.1850  -18.8810 O.2   322  SER322     -0.2863
     32  CB        29.6430   34.3890  -16.8280 C.3   322  SER322      0.2116
     33  OG        30.0300   33.0230  -16.7960 O.3   322  SER322     -0.2180
     34  N         32.8710   27.7930  -14.4480 N.3   327  PHE327     -0.1241
     35  CA        31.9820   26.7940  -13.8740 C.3   327  PHE327      0.1605
     36  C         32.3920   25.3490  -14.0850 C.2   327  PHE327      0.2264
     37  O         31.5630   24.4490  -14.3200 O.2   327  PHE327     -0.2867
     38  CB        30.5200   27.0130  -14.3760 C.3   327  PHE327      0.0534
     39  CG        29.9870   28.4140  -14.2000 C.ar  327  PHE327     -0.0203
     40  CD1       30.2340   29.1520  -13.0440 C.ar  327  PHE327     -0.0042
     41  CD2       29.1670   29.0240  -15.1370 C.ar  327  PHE327     -0.0042
     42  CE1       29.7940   30.4340  -12.8620 C.ar  327  PHE327     -0.0003
     43  CE2       28.6700   30.3020  -14.9580 C.ar  327  PHE327     -0.0003
     44  CZ        28.9780   31.0290  -13.8210 C.ar  327  PHE327     -0.0000
     45  N         30.7250   22.7970  -11.2580 N.3   330  TYR330     -0.1241
     46  CA        29.2690   22.7060  -11.4710 C.3   330  TYR330      0.1605
     47  C         28.9380   21.6580  -12.5380 C.2   330  TYR330      0.2264
     48  O         27.9270   20.9390  -12.4710 O.2   330  TYR330     -0.2867
     49  CB        28.7160   24.0710  -11.8460 C.3   330  TYR330      0.0534
     50  CG        28.4280   25.0830  -10.7690 C.ar  330  TYR330     -0.0201
     51  CD1       27.7180   24.7240   -9.6180 C.ar  330  TYR330     -0.0009
     52  CD2       28.7820   26.4160  -10.9220 C.ar  330  TYR330     -0.0009
     53  CE1       27.4340   25.6840   -8.6500 C.ar  330  TYR330      0.0417
     54  CE2       28.5100   27.3780   -9.9580 C.ar  330  TYR330      0.0417
     55  CZ        27.7960   26.9820   -8.8250 C.ar  330  TYR330      0.1957
     56  OH        27.5070   27.9040   -7.8430 O.3   330  TYR330     -0.2866
     57  N         22.8190   27.6120   -5.2240 N.3   439  PHE439     -0.1227
     58  CA        23.2740   28.9850   -5.0710 C.3   439  PHE439      0.1736
     59  C         22.1240   29.9790   -5.0180 C.2   439  PHE439      0.2595
     60  O         20.9490   29.5960   -5.1660 O.2   439  PHE439     -0.2718
     61  CB        24.2950   29.3560   -6.1740 C.3   439  PHE439      0.0547
     62  CG        23.7140   29.6090   -7.5490 C.ar  439  PHE439     -0.0202
     63  CD1       23.3740   30.8770   -7.9500 C.ar  439  PHE439     -0.0042
     64  CD2       23.5630   28.5370   -8.4200 C.ar  439  PHE439     -0.0042
     65  CE1       22.7970   31.1040   -9.1990 C.ar  439  PHE439     -0.0003
     66  CE2       23.0210   28.7440   -9.6910 C.ar  439  PHE439     -0.0003
     67  CZ        22.6580   30.0200  -10.0550 C.ar  439  PHE439     -0.0000
     68  N         22.3480   31.2630   -4.7800 N.am  440  TYR440     -0.1976
     69  CA        21.3370   32.2780   -4.5580 C.3   440  TYR440      0.1639
     70  C         20.2110   32.2350   -5.6110 C.2   440  TYR440      0.2290
     71  O         19.0350   32.4600   -5.3030 O.2   440  TYR440     -0.2864
     72  CB        21.9990   33.6550   -4.5960 C.3   440  TYR440      0.0560
     73  CG        21.4750   34.7870   -3.7450 C.ar  440  TYR440     -0.0198
     74  CD1       22.3100   35.8280   -3.3680 C.ar  440  TYR440     -0.0009
     75  CD2       20.1520   34.8180   -3.3160 C.ar  440  TYR440     -0.0009
     76  CE1       21.8500   36.8880   -2.6090 C.ar  440  TYR440      0.0417
     77  CE2       19.6830   35.8660   -2.5280 C.ar  440  TYR440      0.0417
     78  CZ        20.5340   36.8840   -2.1880 C.ar  440  TYR440      0.1957
     79  OH        20.0270   37.9200   -1.4310 O.3   440  TYR440     -0.2866
     80  N         17.3520   30.3970  -19.3150 N.3   473  ALA473     -0.1231
     81  CA        18.3740   31.1430  -20.0530 C.3   473  ALA473      0.1694
     82  C         19.6010   31.5720  -19.2730 C.2   473  ALA473      0.2592
     83  O         20.5780   32.0240  -19.8990 O.2   473  ALA473     -0.2718
     84  CB        17.7350   32.4140  -20.6490 C.3   473  ALA473      0.0304
     85  N         19.6130   31.4750  -17.9390 N.am  474  MET474     -0.1965
     86  CA        20.6500   32.0570  -17.1060 C.3   474  MET474      0.1736
     87  C         21.4740   31.0730  -16.2910 C.2   474  MET474      0.2616
     88  O         22.6150   31.4450  -15.9680 O.2   474  MET474     -0.2715
     89  CB        20.0030   33.0450  -16.0880 C.3   474  MET474      0.0427
     90  CG        19.3330   34.2490  -16.7500 C.3   474  MET474      0.0599
     91  SD        17.9010   34.9180  -15.8390 S.3   474  MET474     -0.1393
     92  CE        16.6720   33.6840  -16.2060 C.3   474  MET474      0.0692
     93  N         21.0170   29.8980  -15.8690 N.am  475  ASN475     -0.1958
     94  CA        21.6910   29.2880  -14.6850 C.3   475  ASN475      0.1819
     95  C         22.3020   27.9200  -14.8880 C.2   475  ASN475      0.2621
     96  O         21.7460   27.0640  -15.5880 O.2   475  ASN475     -0.2715
     97  CB        20.6680   29.1650  -13.5240 C.3   475  ASN475      0.1195
     98  CG        20.0420   30.5050  -13.2230 C.2   475  ASN475      0.2630
     99  OD1       18.7970   30.6230  -13.2890 O.2   475  ASN475     -0.2716
    100  ND2       20.8380   31.5240  -12.9690 N.am  475  ASN475     -0.0877
    101  N         23.4720   27.6560  -14.2720 N.am  476  VAL476     -0.1977
    102  CA        24.1210   26.3670  -14.3350 C.3   476  VAL476      0.1596
    103  C         23.3370   25.2170  -13.7060 C.2   476  VAL476      0.2287
    104  O         22.3190   25.4370  -13.0440 O.2   476  VAL476     -0.2864
    105  CB        25.5040   26.3430  -13.6220 C.3   476  VAL476      0.0276
    106  CG1       26.4000   27.4020  -14.2180 C.3   476  VAL476      0.0022
    107  CG2       25.3190   26.5460  -12.1140 C.3   476  VAL476      0.0022
@<TRIPOS>BOND
     1     1     2    1
     2     2     3    1
     3     2     5    1
     4     3     4    2
     5     5     6    1
     6    26    25    1
     7    26    27    1
     8     6     7    1
     9    25    24    1
    10    20    21    1
    11     7     8    1
    12     8     9    2
    13    21    24    1
    14    21    22    1
    15    84    81    1
    16    10     9    1
    17    12    13    1
    18     9    11    1
    19    81    80    1
    20    81    82    1
    21    83    82    2
    22    22    28   am
    23    22    23    2
    24    13    14    1
    25    13    16    1
    26    28    29    1
    27    82    85   am
    28    19    17    1
    29    31    30    2
    30    17    16    1
    31    17    18    1
    32    14    15    2
    33    30    29    1
    34    29    32    1
    35    85    86    1
    36    86    87    1
    37    86    89    1
    38    32    33    1
    39    90    89    1
    40    90    91    1
    41    87    88    2
    42    87    93   am
    43    92    91    1
    44    93    94    1
    45    96    95    2
    46    41    43   ar
    47    41    39   ar
    48    43    44   ar
    49    95    94    1
    50    95   101   am
    51    94    97    1
    52    34    35    1
    53    38    39    1
    54    38    35    1
    55   102   101    1
    56   102   103    1
    57   102   105    1
    58    37    36    2
    59   106   105    1
    60    39    40   ar
    61    36    35    1
    62    44    42   ar
    63   103   104    2
    64   105   107    1
    65    97    98    1
    66    99    98    2
    67    98   100   am
    68    40    42   ar
    69    47    48    2
    70    47    46    1
    71    49    46    1
    72    49    50    1
    73    46    45    1
    74    52    50   ar
    75    52    54   ar
    76    50    51   ar
    77    67    66   ar
    78    67    65   ar
    79    54    55   ar
    80    66    64   ar
    81    51    53   ar
    82    65    63   ar
    83    55    53   ar
    84    55    56    1
    85    64    62   ar
    86    63    62   ar
    87    62    61    1
    88    61    58    1
    89    70    71    2
    90    70    69    1
    91    57    58    1
    92    60    59    2
    93    58    59    1
    94    59    68   am
    95    68    69    1
    96    72    69    1
    97    72    73    1
    98    73    74   ar
    99    73    75   ar
   100    74    76   ar
   101    75    77   ar
   102    76    78   ar
   103    77    78   ar
   104    78    79    1
