@<TRIPOS>MOLECULE
tmp/1hbrC00.pdb
 217 206 0 0 0
SMALL
GASTEIGER

@<TRIPOS>ATOM
      1  N         13.7580   -3.9150   37.3100 N.3    32  MET32      -0.1245
      2  CA        14.1540   -2.8310   36.4140 C.3    32  MET32       0.1570
      3  C         15.1090   -1.8630   37.1140 C.2    32  MET32       0.2261
      4  O         16.2140   -1.6380   36.6330 O.2    32  MET32      -0.2867
      5  CB        12.9310   -2.0760   35.8820 C.3    32  MET32       0.0387
      6  CG        13.2760   -0.8740   35.0240 C.3    32  MET32       0.0595
      7  SD        11.8320   -0.2060   34.1940 S.3    32  MET32      -0.1393
      8  CE        11.0640    0.6820   35.5310 C.3    32  MET32       0.0692
      9  N         16.9250    4.0130   35.1940 N.3    39  THR39      -0.1218
     10  CA        15.4770    4.2030   35.2230 C.3    39  THR39       0.1862
     11  C         14.9670    4.8950   36.4940 C.2    39  THR39       0.2287
     12  O         13.8940    5.5040   36.4880 O.2    39  THR39      -0.2866
     13  CB        14.7440    2.8720   35.0310 C.3    39  THR39       0.1770
     14  OG1       15.2660    1.9090   35.9500 O.3    39  THR39      -0.2211
     15  CG2       14.9340    2.3630   33.6200 C.3    39  THR39       0.0375
     16  N         13.4090    8.4920   36.6940 N.3    42  TYR42      -0.1227
     17  CA        12.0180    8.8640   36.4580 C.3    42  TYR42       0.1736
     18  C         11.1600    8.8820   37.7160 C.2    42  TYR42       0.2595
     19  O         10.0320    9.3830   37.7050 O.2    42  TYR42      -0.2718
     20  CB        11.3900    7.9340   35.4260 C.3    42  TYR42       0.0548
     21  CG        11.9190    8.1570   34.0420 C.ar   42  TYR42      -0.0200
     22  CD1       13.1340    7.6110   33.6490 C.ar   42  TYR42      -0.0009
     23  CD2       11.2200    8.9400   33.1260 C.ar   42  TYR42      -0.0009
     24  CE1       13.6440    7.8370   32.3800 C.ar   42  TYR42       0.0417
     25  CE2       11.7230    9.1730   31.8510 C.ar   42  TYR42       0.0417
     26  CZ        12.9340    8.6180   31.4840 C.ar   42  TYR42       0.1957
     27  OH        13.4280    8.8230   30.2150 O.3    42  TYR42      -0.2866
     28  N         11.6930    8.3450   38.8060 N.am   43  PHE43      -0.1976
     29  CA        10.9550    8.2930   40.0600 C.3    43  PHE43       0.1639
     30  C         11.7380    8.9760   41.1890 C.2    43  PHE43       0.2290
     31  O         12.0110    8.3650   42.2230 O.2    43  PHE43      -0.2864
     32  CB        10.6440    6.8320   40.4390 C.3    43  PHE43       0.0560
     33  CG         9.8800    6.0590   39.3870 C.ar   43  PHE43      -0.0200
     34  CD1        8.4950    6.0620   39.3710 C.ar   43  PHE43      -0.0042
     35  CD2       10.5530    5.3290   38.4140 C.ar   43  PHE43      -0.0042
     36  CE1        7.7910    5.3320   38.4090 C.ar   43  PHE43      -0.0003
     37  CE2        9.8540    4.5980   37.4490 C.ar   43  PHE43      -0.0003
     38  CZ         8.4780    4.6070   37.4450 C.ar   43  PHE43      -0.0000
     39  N         10.6380   11.0910   43.2390 N.3    45  HIS45      -0.1226
     40  CA         9.6920   11.2480   44.3300 C.3    45  HIS45       0.1752
     41  C          9.3990    9.9460   45.0790 C.2    45  HIS45       0.2596
     42  O          8.7370    9.9570   46.1140 O.2    45  HIS45      -0.2718
     43  CB         8.3740   11.8470   43.8030 C.3    45  HIS45       0.0759
     44  CG         7.7870   11.1050   42.6400 C.ar   45  HIS45       0.0818
     45  ND1        8.5620   10.5100   41.6670 N.ar   45  HIS45      -0.2268
     46  CD2        6.5030   10.8680   42.2860 C.ar   45  HIS45       0.1154
     47  CE1        7.7850    9.9410   40.7660 C.ar   45  HIS45       0.1986
     48  NE2        6.5270   10.1440   41.1210 N.ar   45  HIS45      -0.2212
     49  N          9.7930    8.8200   44.4940 N.am   46  PHE46      -0.1976
     50  CA         9.5670    7.5050   45.0980 C.3    46  PHE46       0.1639
     51  C         10.6470    7.0590   46.0580 C.2    46  PHE46       0.2290
     52  O         11.8020    7.4600   45.9480 O.2    46  PHE46      -0.2864
     53  CB         9.5330    6.4130   44.0290 C.3    46  PHE46       0.0560
     54  CG         8.1890    6.1560   43.4510 C.ar   46  PHE46      -0.0200
     55  CD1        7.2690    7.1840   43.3090 C.ar   46  PHE46      -0.0042
     56  CD2        7.8600    4.8840   42.9980 C.ar   46  PHE46      -0.0042
     57  CE1        6.0420    6.9540   42.7220 C.ar   46  PHE46      -0.0003
     58  CE2        6.6360    4.6410   42.4080 C.ar   46  PHE46      -0.0003
     59  CZ         5.7220    5.6790   42.2670 C.ar   46  PHE46      -0.0000
     60  N          2.7370    1.1220   42.9330 N.3    58  HIS58      -0.1241
     61  CA         2.8870    1.4260   41.5230 C.3    58  HIS58       0.1621
     62  C          2.8110    0.1380   40.7200 C.2    58  HIS58       0.2264
     63  O          2.0530    0.0500   39.7570 O.2    58  HIS58      -0.2867
     64  CB         4.2140    2.1210   41.2420 C.3    58  HIS58       0.0745
     65  CG         4.2710    2.7500   39.8880 C.ar   58  HIS58       0.0817
     66  ND1        3.2080    3.4460   39.3560 N.ar   58  HIS58      -0.2268
     67  CD2        5.2410    2.7660   38.9420 C.ar   58  HIS58       0.1154
     68  CE1        3.5200    3.8620   38.1360 C.ar   58  HIS58       0.1986
     69  NE2        4.7400    3.4620   37.8700 N.ar   58  HIS58      -0.2212
     70  N         -0.4600   -0.8690   39.9180 N.3    61  LYS61      -0.1231
     71  CA        -1.1170   -0.0320   38.9130 C.3    61  LYS61       0.1693
     72  C         -0.6350   -0.4050   37.5100 C.2    61  LYS61       0.2591
     73  O         -1.4310   -0.4410   36.5700 O.2    61  LYS61      -0.2718
     74  CB        -0.8860    1.4550   39.2030 C.3    61  LYS61       0.0285
     75  CG        -1.6850    1.9890   40.3820 C.3    61  LYS61       0.0035
     76  CD        -1.1740    3.3540   40.7960 C.3    61  LYS61       0.0206
     77  CE        -1.0300    3.4390   42.2910 C.3    61  LYS61       0.1093
     78  NZ        -0.0200    4.4430   42.7270 N.3    61  LYS61      -0.1314
     79  N          0.6550   -0.7140   37.3870 N.am   62  VAL62      -0.1980
     80  CA         1.2510   -1.1150   36.1180 C.3    62  VAL62       0.1595
     81  C          0.5920   -2.3940   35.6030 C.2    62  VAL62       0.2287
     82  O          0.0360   -2.4150   34.5020 O.2    62  VAL62      -0.2864
     83  CB         2.7690   -1.3280   36.2600 C.3    62  VAL62       0.0276
     84  CG1        3.3520   -1.8960   34.9710 C.3    62  VAL62       0.0022
     85  CG2        3.4510   -0.0080   36.6080 C.3    62  VAL62       0.0022
     86  N         -2.9430   -2.0280   34.4090 N.3    65  ALA65      -0.1231
     87  CA        -3.0420   -1.4540   33.0650 C.3    65  ALA65       0.1694
     88  C         -2.8440   -2.5300   32.0020 C.2    65  ALA65       0.2591
     89  O         -3.5780   -2.5770   31.0140 O.2    65  ALA65      -0.2718
     90  CB        -2.0200   -0.3450   32.8870 C.3    65  ALA65       0.0304
     91  N         -1.8510   -3.3900   32.2060 N.am   66  LEU66      -0.1980
     92  CA        -1.5750   -4.4800   31.2800 C.3    66  LEU66       0.1596
     93  C         -2.7820   -5.4000   31.1890 C.2    66  LEU66       0.2287
     94  O         -3.1450   -5.8550   30.1040 O.2    66  LEU66      -0.2864
     95  CB        -0.3460   -5.2630   31.7270 C.3    66  LEU66       0.0297
     96  CG         0.9810   -4.5580   31.4560 C.3    66  LEU66       0.0022
     97  CD1        2.1040   -5.3910   32.0060 C.3    66  LEU66       0.0001
     98  CD2        1.1630   -4.3260   29.9600 C.3    66  LEU66       0.0001
     99  N         -5.1570    2.6940   25.8780 N.3    80  MET80      -0.1245
    100  CA        -3.9360    3.2060   26.4970 C.3    80  MET80       0.1570
    101  C         -3.7610    4.7010   26.2130 C.2    80  MET80       0.2261
    102  O         -2.7370    5.2930   26.5680 O.2    80  MET80      -0.2867
    103  CB        -2.7130    2.4610   25.9550 C.3    80  MET80       0.0387
    104  CG        -2.7690    0.9370   26.0300 C.3    80  MET80       0.0595
    105  SD        -2.6540    0.2760   27.6880 S.3    80  MET80      -0.1393
    106  CE        -0.8450    0.4820   27.9760 C.3    80  MET80       0.0692
    107  N         -2.6040    6.8760   29.0230 N.3    83  LEU83      -0.1245
    108  CA        -1.2580    6.4950   29.4100 C.3    83  LEU83       0.1561
    109  C         -0.1670    6.9500   28.4430 C.2    83  LEU83       0.2260
    110  O          0.9220    7.3130   28.8830 O.2    83  LEU83      -0.2867
    111  CB        -1.1810    4.9870   29.6480 C.3    83  LEU83       0.0270
    112  CG        -1.8720    4.5080   30.9280 C.3    83  LEU83       0.0019
    113  CD1       -1.7360    3.0030   31.0490 C.3    83  LEU83       0.0001
    114  CD2       -1.2430    5.1920   32.1300 C.3    83  LEU83       0.0001
    115  N          0.3920   10.6190   29.0500 N.3    86  LEU86      -0.1231
    116  CA         1.1430   10.8390   30.2800 C.3    86  LEU86       0.1693
    117  C          2.6290   10.5580   30.0690 C.2    86  LEU86       0.2592
    118  O          3.4780   11.4040   30.3630 O.2    86  LEU86      -0.2718
    119  CB         0.6000    9.9180   31.3860 C.3    86  LEU86       0.0284
    120  CG         0.8090   10.1640   32.8910 C.3    86  LEU86       0.0019
    121  CD1        0.8400    8.8110   33.5830 C.3    86  LEU86       0.0001
    122  CD2        2.0820   10.9330   33.2050 C.3    86  LEU86       0.0001
    123  N          2.9350    9.3710   29.5520 N.am   87  HIS87      -0.1976
    124  CA         4.3150    8.9510   29.3370 C.3    87  HIS87       0.1656
    125  C          5.0650    9.7390   28.2740 C.2    87  HIS87       0.2291
    126  O          6.2240   10.1060   28.4770 O.2    87  HIS87      -0.2864
    127  CB         4.3780    7.4500   29.0520 C.3    87  HIS87       0.0771
    128  CG         4.0280    6.6010   30.2360 C.ar   87  HIS87       0.0820
    129  ND1        2.7300    6.2780   30.5640 N.ar   87  HIS87      -0.2267
    130  CD2        4.8090    6.0030   31.1680 C.ar   87  HIS87       0.1154
    131  CE1        2.7210    5.5160   31.6420 C.ar   87  HIS87       0.1986
    132  NE2        3.9690    5.3350   32.0280 N.ar   87  HIS87      -0.2212
    133  N          5.6280   13.0640   30.9340 N.3    91  LEU91      -0.1245
    134  CA         6.8700   12.4940   31.4460 C.3    91  LEU91       0.1561
    135  C          8.0750   12.4870   30.5220 C.2    91  LEU91       0.2260
    136  O          9.2130   12.5060   30.9970 O.2    91  LEU91      -0.2867
    137  CB         6.6120   11.0730   31.9420 C.3    91  LEU91       0.0270
    138  CG         5.6140   10.9490   33.0900 C.3    91  LEU91       0.0019
    139  CD1        5.1860    9.5080   33.2430 C.3    91  LEU91       0.0001
    140  CD2        6.2410   11.4740   34.3700 C.3    91  LEU91       0.0001
    141  N          9.1820   10.0030   28.6670 N.3    93  VAL93      -0.1245
    142  CA         9.9370    8.7770   28.9110 C.3    93  VAL93       0.1561
    143  C         10.6360    8.3550   27.6280 C.2    93  VAL93       0.2260
    144  O          9.9940    8.1850   26.5910 O.2    93  VAL93      -0.2867
    145  CB         9.0290    7.5990   29.3440 C.3    93  VAL93       0.0252
    146  CG1        9.8770    6.3700   29.6440 C.3    93  VAL93       0.0019
    147  CG2        8.1860    7.9790   30.5450 C.3    93  VAL93       0.0019
    148  N         13.3650    2.8040   27.3520 N.3    97  ASN97      -0.1225
    149  CA        12.9550    2.2760   28.6450 C.3    97  ASN97       0.1785
    150  C         11.7790    1.2990   28.6190 C.2    97  ASN97       0.2597
    151  O         11.6880    0.4230   29.4800 O.2    97  ASN97      -0.2718
    152  CB        12.6800    3.4220   29.6130 C.3    97  ASN97       0.1169
    153  CG        13.9210    4.2460   29.9040 C.2    97  ASN97       0.2627
    154  OD1       13.8880    5.4720   29.8460 O.2    97  ASN97      -0.2716
    155  ND2       15.0240    3.5750   30.2120 N.am   97  ASN97      -0.0877
    156  N         10.8790    1.4430   27.6520 N.am   98  PHE98      -0.1976
    157  CA         9.7480    0.5250   27.5490 C.3    98  PHE98       0.1639
    158  C         10.2570   -0.8880   27.2860 C.2    98  PHE98       0.2290
    159  O          9.6700   -1.8610   27.7570 O.2    98  PHE98      -0.2864
    160  CB         8.7810    0.9550   26.4460 C.3    98  PHE98       0.0560
    161  CG         8.0300    2.2070   26.7630 C.ar   98  PHE98      -0.0200
    162  CD1        7.0850    2.2270   27.7820 C.ar   98  PHE98      -0.0042
    163  CD2        8.2670    3.3700   26.0520 C.ar   98  PHE98      -0.0042
    164  CE1        6.3880    3.3950   28.0860 C.ar   98  PHE98      -0.0003
    165  CE2        7.5770    4.5400   26.3480 C.ar   98  PHE98      -0.0003
    166  CZ         6.6350    4.5540   27.3670 C.ar   98  PHE98      -0.0000
    167  N         11.3800   -2.3170   30.7150 N.3   101  LEU101     -0.1231
    168  CA        10.3170   -2.8090   31.5810 C.3   101  LEU101      0.1693
    169  C          9.7700   -4.1240   31.0250 C.2   101  LEU101      0.2592
    170  O          9.5740   -5.0870   31.7740 O.2   101  LEU101     -0.2718
    171  CB         9.1950   -1.7770   31.7500 C.3   101  LEU101      0.0284
    172  CG         8.0900   -2.1310   32.7600 C.3   101  LEU101      0.0019
    173  CD1        8.7010   -2.4990   34.0880 C.3   101  LEU101      0.0001
    174  CD2        7.1300   -0.9850   32.9450 C.3   101  LEU101      0.0001
    175  N          9.6080   -4.1850   29.7060 N.am  102  SER102     -0.1952
    176  CA         9.0900   -5.3760   29.0410 C.3   102  SER102      0.1924
    177  C          9.9150   -6.6230   29.3180 C.2   102  SER102      0.2314
    178  O          9.3690   -7.7050   29.5390 O.2   102  SER102     -0.2863
    179  CB         8.9960   -5.1410   27.5380 C.3   102  SER102      0.2116
    180  OG         8.0490   -4.1310   27.2740 O.3   102  SER102     -0.2180
    181  N          9.2920   -7.6800   33.0250 N.3   105  ILE105     -0.1245
    182  CA         7.9940   -8.3070   33.2080 C.3   105  ILE105      0.1561
    183  C          8.1030   -9.7590   32.7610 C.2   105  ILE105      0.2260
    184  O          7.5510  -10.6590   33.3950 O.2   105  ILE105     -0.2867
    185  CB         6.9160   -7.6160   32.3470 C.3   105  ILE105      0.0252
    186  CG1        6.6320   -6.2150   32.8870 C.3   105  ILE105      0.0019
    187  CG2        5.6440   -8.4570   32.3070 C.3   105  ILE105      0.0019
    188  CD1        5.4440   -5.5480   32.2380 C.3   105  ILE105      0.0001
    189  N          3.7360   -7.1880   24.4950 N.3   129  LEU129     -0.1245
    190  CA         4.4560   -6.1420   25.1980 C.3   129  LEU129      0.1561
    191  C          5.0150   -5.0910   24.2440 C.2   129  LEU129      0.2260
    192  O          4.8840   -3.8960   24.5040 O.2   129  LEU129     -0.2867
    193  CB         5.5500   -6.7230   26.0980 C.3   129  LEU129      0.0270
    194  CG         5.0600   -7.3760   27.4010 C.3   129  LEU129      0.0019
    195  CD1        6.2470   -7.8450   28.2240 C.3   129  LEU129      0.0001
    196  CD2        4.2180   -6.3900   28.2100 C.3   129  LEU129      0.0001
    197  N          2.1630   -2.9010   23.0690 N.3   132  VAL132     -0.1231
    198  CA         1.7780   -2.0000   24.1490 C.3   132  VAL132      0.1692
    199  C          2.7910   -0.8590   24.2820 C.2   132  VAL132      0.2592
    200  O          2.4210    0.3040   24.4760 O.2   132  VAL132     -0.2718
    201  CB         1.6850   -2.7720   25.4840 C.3   132  VAL132      0.0266
    202  CG1        1.6450   -1.8150   26.6640 C.3   132  VAL132      0.0020
    203  CG2        0.4540   -3.6640   25.4870 C.3   132  VAL132      0.0020
    204  N          4.0670   -1.1960   24.1490 N.am  133  SER133     -0.1952
    205  CA         5.1400   -0.2150   24.2430 C.3   133  SER133      0.1924
    206  C          5.0490    0.8010   23.1060 C.2   133  SER133      0.2314
    207  O          5.3250    1.9870   23.2890 O.2   133  SER133     -0.2863
    208  CB         6.5020   -0.9150   24.2050 C.3   133  SER133      0.2116
    209  OG         6.7030   -1.7120   25.3560 O.3   133  SER133     -0.2180
    210  N          2.4240    3.4400   23.6390 N.3   136  LEU136     -0.1245
    211  CA         2.7730    4.3430   24.7300 C.3   136  LEU136      0.1561
    212  C          3.6910    5.4640   24.2800 C.2   136  LEU136      0.2260
    213  O          3.7700    6.5120   24.9190 O.2   136  LEU136     -0.2867
    214  CB         3.3850    3.5820   25.9060 C.3   136  LEU136      0.0270
    215  CG         2.4030    2.7900   26.7660 C.3   136  LEU136      0.0019
    216  CD1        3.0730    2.3790   28.0620 C.3   136  LEU136      0.0001
    217  CD2        1.1990    3.6620   27.0530 C.3   136  LEU136      0.0001
@<TRIPOS>BOND
     1   197   198    1
     2   206   207    2
     3   206   205    1
     4   210   211    1
     5   198   199    1
     6   198   201    1
     7   204   205    1
     8   204   199   am
     9   208   205    1
    10   208   209    1
    11   191   192    2
    12   191   190    1
    13   212   211    1
    14   212   213    2
    15   199   200    2
    16   189   190    1
    17   211   214    1
    18   190   193    1
    19   201   203    1
    20   201   202    1
    21    99   100    1
    22   214   215    1
    23   103   104    1
    24   103   100    1
    25   104   105    1
    26   163   165   ar
    27   163   161   ar
    28   193   194    1
    29   101   100    1
    30   101   102    2
    31   165   166   ar
    32   160   161    1
    33   160   157    1
    34   144   143    2
    35   161   162   ar
    36   215   217    1
    37   215   216    1
    38   180   179    1
    39   158   157    1
    40   158   159    2
    41   148   149    1
    42   166   164   ar
    43   194   196    1
    44   194   195    1
    45   179   176    1
    46   157   156    1
    47   143   142    1
    48   156   150   am
    49   105   106    1
    50   162   164   ar
    51   125   126    2
    52   125   124    1
    53   109   110    2
    54   109   108    1
    55   150   149    1
    56   150   151    2
    57   149   152    1
    58   141   142    1
    59   142   145    1
    60   107   108    1
    61   176   177    1
    62   176   175    1
    63   115   116    1
    64   127   124    1
    65   127   128    1
    66   177   178    2
    67   124   123    1
    68   145   146    1
    69   145   147    1
    70   108   111    1
    71   123   117   am
    72   152   153    1
    73   111   112    1
    74   175   169   am
    75   154   153    2
    76   153   155   am
    77    98    96    1
    78   117   116    1
    79   117   118    2
    80    94    93    2
    81    27    26    1
    82   128   129   ar
    83   128   130   ar
    84   116   119    1
    85   135   136    2
    86   135   134    1
    87   129   131   ar
    88   167   168    1
    89   112   113    1
    90   112   114    1
    91   133   134    1
    92    89    88    2
    93   169   168    1
    94   169   170    2
    95   130   132   ar
    96    93    92    1
    97    92    95    1
    98    92    91    1
    99   119   120    1
   100   134   137    1
   101    96    95    1
   102    96    97    1
   103    26    25   ar
   104    26    24   ar
   105   168   171    1
   106   131   132   ar
   107   171   172    1
   108    25    23   ar
   109   137   138    1
   110    88    91   am
   111    88    87    1
   112   188   186    1
   113   187   185    1
   114   185   186    1
   115   185   182    1
   116    24    22   ar
   117   172   174    1
   118   172   173    1
   119   183   182    1
   120   183   184    2
   121    90    87    1
   122   120   122    1
   123   120   121    1
   124   181   182    1
   125    87    86    1
   126   138   139    1
   127   138   140    1
   128    23    21   ar
   129    15    13    1
   130    22    21   ar
   131    21    20    1
   132     7     6    1
   133     7     8    1
   134    82    81    2
   135    84    83    1
   136     6     5    1
   137    13    10    1
   138    13    14    1
   139     9    10    1
   140    10    11    1
   141    20    17    1
   142    81    80    1
   143     5     2    1
   144    80    83    1
   145    80    79    1
   146    83    85    1
   147     2     3    1
   148     2     1    1
   149    17    16    1
   150    17    18    1
   151    12    11    2
   152    73    72    2
   153     4     3    2
   154    79    72   am
   155    38    37   ar
   156    38    36   ar
   157    37    35   ar
   158    72    71    1
   159    19    18    2
   160    18    28   am
   161    69    68   ar
   162    69    67   ar
   163    68    66   ar
   164    36    34   ar
   165    35    33   ar
   166    28    29    1
   167    71    74    1
   168    71    70    1
   169    67    65   ar
   170    74    75    1
   171    66    65   ar
   172    34    33   ar
   173    33    32    1
   174    63    62    2
   175    65    64    1
   176    29    32    1
   177    29    30    1
   178    75    76    1
   179    62    61    1
   180    47    48   ar
   181    47    45   ar
   182    76    77    1
   183    48    46   ar
   184    30    31    2
   185    64    61    1
   186    61    60    1
   187    45    44   ar
   188    59    58   ar
   189    59    57   ar
   190    46    44   ar
   191    77    78    1
   192    58    56   ar
   193    44    43    1
   194    57    55   ar
   195    56    54   ar
   196    39    40    1
   197    55    54   ar
   198    54    53    1
   199    43    40    1
   200    53    50    1
   201    40    41    1
   202    49    41   am
   203    49    50    1
   204    41    42    2
   205    50    51    1
   206    52    51    2
