@<TRIPOS>MOLECULE
tmp/1hbvB00.pdb
 114 106 0 0 0
SMALL
GASTEIGER

@<TRIPOS>ATOM
      1  N        -21.9230   19.8330   34.0050 N.3     8  ARG8       -0.1245
      2  CA       -21.1640   19.7130   32.7480 C.3     8  ARG8        0.1563
      3  C        -21.8620   20.5090   31.6610 C.2     8  ARG8        0.2260
      4  O        -23.0870   20.4690   31.6920 O.2     8  ARG8       -0.2867
      5  CB       -21.0900   18.3030   32.2420 C.3     8  ARG8        0.0307
      6  CG       -20.4540   17.3530   33.1940 C.3     8  ARG8        0.0489
      7  CD       -19.4690   16.6230   32.3480 C.3     8  ARG8        0.2205
      8  NE       -18.9980   15.4280   33.0130 N.pl3   8  ARG8       -0.0865
      9  CZ       -17.8020   14.8950   32.8340 C.cat   8  ARG8        0.5346
     10  NH1      -16.8690   15.4800   32.0700 N.pl3   8  ARG8        0.1354
     11  NH2      -17.5360   13.7820   33.5050 N.pl3   8  ARG8        0.1354
     12  N        -20.3830   17.2600   25.2030 N.3    23  LEU23      -0.1245
     13  CA       -19.7200   18.2400   26.0530 C.3    23  LEU23       0.1561
     14  C        -19.2050   19.3890   25.2400 C.2    23  LEU23       0.2260
     15  O        -18.4730   19.2160   24.2620 O.2    23  LEU23      -0.2867
     16  CB       -18.4120   17.8520   26.6780 C.3    23  LEU23       0.0270
     17  CG       -18.1100   17.2630   27.9960 C.3    23  LEU23       0.0019
     18  CD1      -16.6300   16.9190   27.9570 C.3    23  LEU23       0.0001
     19  CD2      -18.4480   18.2030   29.0990 C.3    23  LEU23       0.0001
     20  N        -16.5470   21.6580   25.0370 N.3    25  ASP25      -0.1239
     21  CA       -15.1860   21.7090   25.4690 C.3    25  ASP25       0.1674
     22  C        -14.2580   22.7790   24.9230 C.2    25  ASP25       0.2266
     23  O        -13.6270   22.5730   23.8820 O.2    25  ASP25      -0.2867
     24  CB       -14.6170   20.3600   25.1570 C.3    25  ASP25       0.1410
     25  CG       -13.5980   19.9220   26.1420 C.2    25  ASP25       0.3668
     26  OD1      -12.7640   20.7150   26.6170 O.co2  25  ASP25      -0.2456
     27  OD2      -13.6740   18.7520   26.4810 O.co2  25  ASP25      -0.2456
     28  N        -11.3070   23.4690   25.8880 N.3    27  GLY27      -0.1210
     29  CA        -9.9660   22.9000   25.9360 C.3    27  GLY27       0.1956
     30  C         -9.6310   21.9490   24.8130 C.2    27  GLY27       0.2612
     31  O         -8.4780   21.5260   24.7130 O.2    27  GLY27      -0.2717
     32  N        -10.5540   21.5560   23.9360 N.am   28  ALA28      -0.1965
     33  CA       -10.2400   20.5800   22.9060 C.3    28  ALA28       0.1728
     34  C        -10.1100   21.2970   21.5800 C.2    28  ALA28       0.2616
     35  O        -11.0030   22.0590   21.2450 O.2    28  ALA28      -0.2715
     36  CB       -11.3490   19.5740   22.8570 C.3    28  ALA28       0.0334
     37  N         -9.0760   21.1210   20.7750 N.am   29  ASP29      -0.1957
     38  CA        -8.9840   21.8140   19.4890 C.3    29  ASP29       0.1840
     39  C         -9.8650   21.2190   18.4010 C.2    29  ASP29       0.2622
     40  O        -10.2390   21.9150   17.4440 O.2    29  ASP29      -0.2715
     41  CB        -7.5810   21.7910   18.9370 C.3    29  ASP29       0.1450
     42  CG        -6.4990   21.9760   19.9880 C.2    29  ASP29       0.3671
     43  OD1       -6.6800   22.7970   20.9190 O.co2  29  ASP29      -0.2456
     44  OD2       -5.4520   21.2840   19.8690 O.co2  29  ASP29      -0.2456
     45  N        -10.1830   19.9460   18.6330 N.am   30  ASP30      -0.1971
     46  CA       -10.9840   19.0910   17.7680 C.3    30  ASP30       0.1709
     47  C        -12.2250   18.5270   18.4450 C.2    30  ASP30       0.2293
     48  O        -12.2710   18.4570   19.6790 O.2    30  ASP30      -0.2864
     49  CB       -10.1830   17.9040   17.3280 C.3    30  ASP30       0.1436
     50  CG        -8.7680   18.1690   16.8770 C.2    30  ASP30       0.3671
     51  OD1       -8.5680   19.0740   16.0450 O.co2  30  ASP30      -0.2456
     52  OD2       -7.8510   17.4560   17.3450 O.co2  30  ASP30      -0.2456
     53  N        -14.6060   15.2050   18.8000 N.3    32  VAL32      -0.1245
     54  CA       -14.4570   13.7370   18.7850 C.3    32  VAL32       0.1561
     55  C        -15.6600   13.0080   19.4290 C.2    32  VAL32       0.2260
     56  O        -15.9670   13.1250   20.6210 O.2    32  VAL32      -0.2867
     57  CB       -13.0500   13.3650   19.4670 C.3    32  VAL32       0.0252
     58  CG1      -12.8520   14.1660   20.6800 C.3    32  VAL32       0.0019
     59  CG2      -12.9670   11.8820   19.8510 C.3    32  VAL32       0.0019
     60  N         -6.2900    8.7440   11.6830 N.3    45  LYS45      -0.1245
     61  CA        -5.5730    9.8290   12.3340 C.3    45  LYS45       0.1561
     62  C         -5.5060    9.3110   13.7490 C.2    45  LYS45       0.2260
     63  O         -6.1880    8.3610   14.1130 O.2    45  LYS45      -0.2867
     64  CB        -6.3740   11.1700   12.2720 C.3    45  LYS45       0.0271
     65  CG        -5.6540   12.3700   12.8720 C.3    45  LYS45       0.0035
     66  CD        -6.3220   13.7680   12.9390 C.3    45  LYS45       0.0206
     67  CE        -5.3290   14.8430   13.5130 C.3    45  LYS45       0.1093
     68  NZ        -5.5940   16.2750   13.1240 N.3    45  LYS45      -0.1314
     69  N         -5.0520   11.0160   17.8190 N.3    47  ILE47      -0.1231
     70  CA        -4.9840   12.2220   18.6370 C.3    47  ILE47       0.1692
     71  C         -4.4830   11.9010   20.0430 C.2    47  ILE47       0.2593
     72  O         -4.3590   10.7400   20.4310 O.2    47  ILE47      -0.2718
     73  CB        -6.3870   12.9340   18.7150 C.3    47  ILE47       0.0266
     74  CG1       -7.5220   12.1350   19.3060 C.3    47  ILE47       0.0019
     75  CG2       -6.8080   13.1690   17.2840 C.3    47  ILE47       0.0020
     76  CD1       -8.7280   13.0510   19.4540 C.3    47  ILE47       0.0001
     77  N         -4.1810   12.9490   20.7840 N.am   48  GLY48      -0.1942
     78  CA        -3.7690   12.8260   22.1820 C.3    48  GLY48       0.2014
     79  C         -4.6650   13.5930   23.1610 C.2    48  GLY48       0.2639
     80  O         -5.3220   14.6030   22.8280 O.2    48  GLY48      -0.2714
     81  N         -4.6570   13.0560   24.3590 N.am   49  GLY49      -0.1939
     82  CA        -5.3840   13.5920   25.4890 C.3    49  GLY49       0.2014
     83  C         -4.5220   13.2450   26.6830 C.2    49  GLY49       0.2638
     84  O         -3.3730   12.8240   26.4780 O.2    49  GLY49      -0.2714
     85  N         -5.0050   13.3700   27.9150 N.am   50  ILE50      -0.1977
     86  CA        -4.1570   12.9410   29.0210 C.3    50  ILE50       0.1596
     87  C         -4.2970   11.4130   29.0650 C.2    50  ILE50       0.2287
     88  O         -5.2900   10.8570   28.5480 O.2    50  ILE50      -0.2864
     89  CB        -4.5840   13.5750   30.3860 C.3    50  ILE50       0.0276
     90  CG1       -5.9670   13.1020   30.7970 C.3    50  ILE50       0.0022
     91  CG2       -4.4860   15.0960   30.2670 C.3    50  ILE50       0.0022
     92  CD1       -5.8960   12.1780   32.0120 C.3    50  ILE50       0.0001
     93  N        -14.6960    8.5840   25.6860 N.3    81  PRO81      -0.2102
     94  CA       -15.7110    8.3980   26.7750 C.3    81  PRO81       0.1504
     95  C        -17.0820    9.1380   26.7510 C.2    81  PRO81       0.2575
     96  O        -18.0720    8.6190   27.2800 O.2    81  PRO81      -0.2718
     97  CB       -14.9220    8.7420   28.0670 C.3    81  PRO81       0.0282
     98  CG       -13.4870    8.5830   27.6890 C.3    81  PRO81       0.0208
     99  CD       -13.4550    9.1210   26.2990 C.3    81  PRO81       0.0893
    100  N        -16.9670   10.4000   26.2610 N.am   82  VAL82      -0.1980
    101  CA       -17.9650   11.4630   26.0600 C.3    82  VAL82       0.1595
    102  C        -17.7560   11.9480   24.6240 C.2    82  VAL82       0.2287
    103  O        -16.7230   11.7030   24.0290 O.2    82  VAL82      -0.2864
    104  CB       -17.8020   12.7630   26.9290 C.3    82  VAL82       0.0276
    105  CG1      -19.0680   12.9420   27.7220 C.3    82  VAL82       0.0022
    106  CG2      -16.6980   12.6980   27.9050 C.3    82  VAL82       0.0022
    107  N        -17.2300   15.0730   22.3240 N.3    84  ILE84      -0.1245
    108  CA       -16.6190   16.3920   22.5620 C.3    84  ILE84       0.1561
    109  C        -16.7460   17.2920   21.3390 C.2    84  ILE84       0.2260
    110  O        -16.4540   16.8600   20.2220 O.2    84  ILE84      -0.2867
    111  CB       -15.0800   16.2030   22.9460 C.3    84  ILE84       0.0252
    112  CG1      -14.8910   15.5500   24.2990 C.3    84  ILE84       0.0019
    113  CG2      -14.4220   17.5230   23.1570 C.3    84  ILE84       0.0019
    114  CD1      -13.7680   14.5390   24.2000 C.3    84  ILE84       0.0001
@<TRIPOS>BOND
     1    60    61    1
     2    64    61    1
     3    64    65    1
     4    61    62    1
     5    65    66    1
     6    66    67    1
     7    68    67    1
     8    62    63    2
     9    51    50   ar
    10    50    49    1
    11    50    52   ar
    12    75    73    1
    13    49    46    1
    14    40    39    2
    15    46    47    1
    16    46    45    1
    17    69    70    1
    18    39    45   am
    19    39    38    1
    20    47    48    2
    21    70    73    1
    22    70    71    1
    23    73    74    1
    24    54    53    1
    25    54    55    1
    26    54    57    1
    27    41    38    1
    28    41    42    1
    29    74    76    1
    30    55    56    2
    31    57    59    1
    32    57    58    1
    33    38    37    1
    34    44    42   ar
    35    42    43   ar
    36    71    72    2
    37    71    77   am
    38   110   109    2
    39    37    34   am
    40    77    78    1
    41    35    34    2
    42   109   108    1
    43    34    33    1
    44    78    79    1
    45   107   108    1
    46   108   111    1
    47    80    79    2
    48    36    33    1
    49    33    32    1
    50   111   113    1
    51   111   112    1
    52    79    81   am
    53    23    22    2
    54    32    30   am
    55   103   102    2
    56   114   112    1
    57    15    14    2
    58    81    82    1
    59   102   101    1
    60    31    30    2
    61    30    29    1
    62    22    21    1
    63    20    21    1
    64    24    21    1
    65    24    25    1
    66    12    13    1
    67    14    13    1
    68    82    83    1
    69    93    99    1
    70    93    94    1
    71    28    29    1
    72    13    16    1
    73   101   100    1
    74   101   104    1
    75    25    27   ar
    76    25    26   ar
    77   100    95   am
    78    99    98    1
    79    84    83    2
    80    16    17    1
    81    83    85   am
    82    95    94    1
    83    95    96    2
    84    94    97    1
    85   104   105    1
    86   104   106    1
    87    98    97    1
    88    85    86    1
    89    18    17    1
    90    17    19    1
    91    88    87    2
    92    86    87    1
    93    86    89    1
    94    91    89    1
    95    89    90    1
    96    90    92    1
    97     3     4    2
    98     3     2    1
    99    10     9    1
   100     5     2    1
   101     5     6    1
   102     7     8    1
   103     7     6    1
   104     2     1    1
   105     9     8    2
   106     9    11    1
