@<TRIPOS>MOLECULE
tmp/1hcsB00.pdb
 149 143 0 0 0
SMALL
GASTEIGER

@<TRIPOS>ATOM
      1  N          6.6670   -9.9220    7.1500 N.3    16  ARG16      -0.1245
      2  CA         6.8940   -8.4670    7.3790 C.3    16  ARG16       0.1563
      3  C          8.3710   -8.1390    7.1510 C.2    16  ARG16       0.2260
      4  O          8.7120   -7.0870    6.6480 O.2    16  ARG16      -0.2867
      5  CB         6.5070   -8.1090    8.8150 C.3    16  ARG16       0.0307
      6  CG         6.8860   -6.6540    9.0990 C.3    16  ARG16       0.0489
      7  CD         6.4090   -6.2650   10.5000 C.3    16  ARG16       0.2205
      8  NE         6.6610   -7.3910   11.4420 N.pl3  16  ARG16      -0.0865
      9  CZ         7.3880   -7.2000   12.5080 C.cat  16  ARG16       0.5346
     10  NH1        8.6790   -7.0390   12.3980 N.pl3  16  ARG16       0.1354
     11  NH2        6.8250   -7.1690   13.6850 N.pl3  16  ARG16       0.1354
     12  N         -0.4610   -6.4560   -0.3740 N.3    36  ARG36      -0.1245
     13  CA        -0.3570   -7.8940    0.0030 C.3    36  ARG36       0.1563
     14  C         -1.5670   -8.2870    0.8530 C.2    36  ARG36       0.2260
     15  O         -2.4970   -7.5230    1.0170 O.2    36  ARG36      -0.2867
     16  CB         0.9260   -8.1190    0.8070 C.3    36  ARG36       0.0307
     17  CG         0.9330   -7.1930    2.0250 C.3    36  ARG36       0.0489
     18  CD         1.9820   -7.6780    3.0290 C.3    36  ARG36       0.2205
     19  NE         2.7990   -6.5200    3.4900 N.pl3  36  ARG36      -0.0865
     20  CZ         2.8860   -6.2490    4.7640 C.cat  36  ARG36       0.5346
     21  NH1        1.8880   -5.6750    5.3780 N.pl3  36  ARG36       0.1354
     22  NH2        3.9710   -6.5510    5.4220 N.pl3  36  ARG36       0.1354
     23  N         -1.5780   -9.4940    7.1130 N.3    39  GLU39      -0.1231
     24  CA        -0.8250  -10.4600    7.9620 C.3    39  GLU39       0.1699
     25  C         -1.2780  -10.3130    9.4160 C.2    39  GLU39       0.2593
     26  O         -1.4280  -11.2840   10.1320 O.2    39  GLU39      -0.2718
     27  CB         0.6730  -10.1640    7.8630 C.3    39  GLU39       0.0402
     28  CG         1.3310  -11.1610    6.9060 C.3    39  GLU39       0.1161
     29  CD         2.6210  -11.6950    7.5320 C.2    39  GLU39       0.3649
     30  OE1        3.0650  -11.1170    8.5100 O.co2  39  GLU39      -0.2457
     31  OE2        3.1420  -12.6730    7.0230 O.co2  39  GLU39      -0.2457
     32  N         -1.4910   -9.1040    9.8580 N.am   40  THR40      -0.1939
     33  CA        -1.9260   -8.8870   11.2610 C.3    40  THR40       0.2028
     34  C         -3.4210   -8.5570   11.2940 C.2    40  THR40       0.2642
     35  O         -4.0620   -8.6450   12.3230 O.2    40  THR40      -0.2714
     36  CB        -1.1320   -7.7210   11.8480 C.3    40  THR40       0.1808
     37  OG1       -1.5070   -6.5180   11.1930 O.3    40  THR40      -0.2208
     38  CG2        0.3630   -7.9710   11.6450 C.3    40  THR40       0.0379
     39  N         -3.9830   -8.1780   10.1780 N.am   41  THR41      -0.1950
     40  CA        -5.4360   -7.8440   10.1530 C.3    41  THR41       0.1897
     41  C         -6.2400   -9.1070    9.8350 C.2    41  THR41       0.2313
     42  O         -5.7380  -10.2100    9.9210 O.2    41  THR41      -0.2863
     43  CB        -5.6980   -6.7840    9.0800 C.3    41  THR41       0.1794
     44  OG1       -4.5420   -5.9710    8.9290 O.3    41  THR41      -0.2208
     45  CG2       -6.8820   -5.9120    9.4990 C.3    41  THR41       0.0378
     46  N         -3.2090   -4.9340    2.7020 N.3    46  CYS46      -0.1235
     47  CA        -2.2850   -3.9170    3.2810 C.3    46  CYS46       0.1677
     48  C         -1.4840   -3.2520    2.1590 C.2    46  CYS46       0.2270
     49  O         -0.6770   -3.8800    1.5030 O.2    46  CYS46      -0.2867
     50  CB        -1.3260   -4.5980    4.2580 C.3    46  CYS46       0.0956
     51  SG        -2.2460   -5.1640    5.7100 S.3    46  CYS46      -0.0801
     52  N          6.3580    3.2480    4.8140 N.3    61  LYS61      -0.1231
     53  CA         5.0870    3.5530    5.5270 C.3    61  LYS61       0.1693
     54  C          4.0570    2.4680    5.2070 C.2    61  LYS61       0.2592
     55  O          3.8310    2.1320    4.0610 O.2    61  LYS61      -0.2718
     56  CB         4.5610    4.9140    5.0670 C.3    61  LYS61       0.0285
     57  CG         5.3700    6.0260    5.7380 C.3    61  LYS61       0.0035
     58  CD         4.5200    7.2960    5.8250 C.3    61  LYS61       0.0206
     59  CE         5.4320    8.5230    5.7750 C.3    61  LYS61       0.1093
     60  NZ         5.3100    9.2870    7.0490 N.3    61  LYS61      -0.1314
     61  N          3.4350    1.9110    6.2100 N.am   62  HIS62      -0.1962
     62  CA         2.4270    0.8420    5.9590 C.3    62  HIS62       0.1787
     63  C          1.0160    1.4240    6.0660 C.2    62  HIS62       0.2620
     64  O          0.6360    1.9780    7.0780 O.2    62  HIS62      -0.2715
     65  CB         2.5990   -0.2710    6.9940 C.3    62  HIS62       0.0785
     66  CG         3.9860   -0.8440    6.8910 C.ar   62  HIS62       0.0821
     67  ND1        4.2310   -2.2060    6.9690 N.ar   62  HIS62      -0.2267
     68  CD2        5.2120   -0.2510    6.7170 C.ar   62  HIS62       0.1154
     69  CE1        5.5580   -2.3860    6.8420 C.ar   62  HIS62       0.1986
     70  NE2        6.2040   -1.2270    6.6860 N.ar   62  HIS62      -0.2212
     71  N          0.2350    1.2970    5.0280 N.am   63  TYR63      -0.1960
     72  CA        -1.1540    1.8340    5.0660 C.3    63  TYR63       0.1771
     73  C         -2.1440    0.6690    5.0120 C.2    63  TYR63       0.2619
     74  O         -2.5890    0.2670    3.9550 O.2    63  TYR63      -0.2715
     75  CB        -1.3800    2.7540    3.8660 C.3    63  TYR63       0.0574
     76  CG        -0.9130    4.1490    4.2080 C.ar   63  TYR63      -0.0198
     77  CD1        0.4350    4.5000    4.0310 C.ar   63  TYR63      -0.0009
     78  CD2       -1.8270    5.0950    4.7030 C.ar   63  TYR63      -0.0009
     79  CE1        0.8720    5.7960    4.3500 C.ar   63  TYR63       0.0417
     80  CE2       -1.3900    6.3920    5.0230 C.ar   63  TYR63       0.0417
     81  CZ        -0.0410    6.7420    4.8460 C.ar   63  TYR63       0.1957
     82  OH         0.3880    8.0160    5.1600 O.3    63  TYR63      -0.2866
     83  N         -2.4860    0.1190    6.1440 N.am   64  LYS64      -0.1977
     84  CA        -3.4400   -1.0240    6.1610 C.3    64  LYS64       0.1596
     85  C         -4.7050   -0.6540    5.3850 C.2    64  LYS64       0.2287
     86  O         -5.3180    0.3670    5.6260 O.2    64  LYS64      -0.2864
     87  CB        -3.8100   -1.3570    7.6090 C.3    64  LYS64       0.0298
     88  CG        -4.1880   -0.0720    8.3480 C.3    64  LYS64       0.0038
     89  CD        -5.2750   -0.3780    9.3810 C.3    64  LYS64       0.0206
     90  CE        -4.7140   -0.1720   10.7890 C.3    64  LYS64       0.1093
     91  NZ        -5.7990   -0.3750   11.7910 N.3    64  LYS64      -0.1314
     92  N         -8.4950   -0.9820    4.7480 N.3    66  ARG66      -0.1245
     93  CA        -9.6910   -1.5180    5.4540 C.3    66  ARG66       0.1563
     94  C        -10.6500   -2.1500    4.4510 C.2    66  ARG66       0.2260
     95  O        -10.4800   -2.0430    3.2520 O.2    66  ARG66      -0.2867
     96  CB       -10.4030   -0.3860    6.1920 C.3    66  ARG66       0.0307
     97  CG        -9.3720    0.4410    6.9520 C.3    66  ARG66       0.0489
     98  CD        -9.9800    0.9450    8.2630 C.3    66  ARG66       0.2205
     99  NE        -8.9160    1.5760    9.0930 N.pl3  66  ARG66      -0.0865
    100  CZ        -9.1940    2.0170   10.2890 C.cat  66  ARG66       0.5346
    101  NH1       -9.0970    1.2190   11.3180 N.pl3  66  ARG66       0.1354
    102  NH2       -9.5690    3.2550   10.4580 N.pl3  66  ARG66       0.1354
    103  N         -8.7350    3.1610    3.1620 N.3    75  ILE75      -0.1231
    104  CA        -7.6560    3.2870    4.1790 C.3    75  ILE75       0.1692
    105  C         -7.9280    4.5130    5.0590 C.2    75  ILE75       0.2592
    106  O         -7.2080    4.7830    6.0000 O.2    75  ILE75      -0.2718
    107  CB        -6.3090    3.4370    3.4640 C.3    75  ILE75       0.0266
    108  CG1       -5.8830    2.0760    2.9120 C.3    75  ILE75       0.0019
    109  CG2       -5.2440    3.9390    4.4450 C.3    75  ILE75       0.0020
    110  CD1       -4.8840    2.2760    1.7710 C.3    75  ILE75       0.0001
    111  N         -8.9610    5.2560    4.7630 N.am   76  THR76      -0.1953
    112  CA        -9.2730    6.4570    5.5840 C.3    76  THR76       0.1897
    113  C        -10.7910    6.6160    5.6940 C.2    76  THR76       0.2313
    114  O        -11.5370    6.1250    4.8710 O.2    76  THR76      -0.2863
    115  CB        -8.6750    7.6990    4.9200 C.3    76  THR76       0.1794
    116  OG1       -8.7970    8.8080    5.7990 O.3    76  THR76      -0.2208
    117  CG2       -9.4190    7.9930    3.6160 C.3    76  THR76       0.0378
    118  N         -5.2970    6.7910   -4.9480 N.3    91  TYR91      -0.1241
    119  CA        -4.0340    7.1030   -4.2220 C.3    91  TYR91       0.1605
    120  C         -2.8520    7.0600   -5.1970 C.2    91  TYR91       0.2264
    121  O         -1.7340    7.3870   -4.8480 O.2    91  TYR91      -0.2867
    122  CB        -3.8190    6.0660   -3.1120 C.3    91  TYR91       0.0534
    123  CG        -4.7910    6.3020   -1.9710 C.ar   91  TYR91      -0.0201
    124  CD1       -5.8680    7.1980   -2.1190 C.ar   91  TYR91      -0.0009
    125  CD2       -4.6140    5.6190   -0.7550 C.ar   91  TYR91      -0.0009
    126  CE1       -6.7610    7.4070   -1.0540 C.ar   91  TYR91       0.0417
    127  CE2       -5.5080    5.8290    0.3090 C.ar   91  TYR91       0.0417
    128  CZ        -6.5810    6.7230    0.1590 C.ar   91  TYR91       0.1957
    129  OH        -7.4580    6.9290    1.2040 O.3    91  TYR91      -0.2866
    130  N         -3.4740   12.7900   -1.5670 N.3    96  ASP96      -0.1225
    131  CA        -4.5500   13.1150   -0.5880 C.3    96  ASP96       0.1805
    132  C         -3.9520   13.1910    0.8180 C.2    96  ASP96       0.2598
    133  O         -4.5530   12.7610    1.7830 O.2    96  ASP96      -0.2718
    134  CB        -5.6230   12.0250   -0.6270 C.3    96  ASP96       0.1424
    135  CG        -6.9970   12.6660   -0.8330 C.2    96  ASP96       0.3668
    136  OD1       -7.1920   13.2830   -1.8680 O.co2  96  ASP96      -0.2456
    137  OD2       -7.8310   12.5300    0.0470 O.co2  96  ASP96      -0.2456
    138  N         -2.7710   13.7330    0.9420 N.am   97  GLY97      -0.1942
    139  CA        -2.1340   13.8340    2.2850 C.3    97  GLY97       0.2014
    140  C         -1.3900   12.5340    2.5960 C.2    97  GLY97       0.2638
    141  O         -1.0990   12.2320    3.7360 O.2    97  GLY97      -0.2714
    142  N         -1.0820   11.7610    1.5900 N.am   98  LEU98      -0.1977
    143  CA        -0.3580   10.4810    1.8290 C.3    98  LEU98       0.1596
    144  C          1.1450   10.7470    1.8990 C.2    98  LEU98       0.2287
    145  O          1.5830   11.8770    1.9820 O.2    98  LEU98      -0.2864
    146  CB        -0.6500    9.5050    0.6880 C.3    98  LEU98       0.0297
    147  CG        -1.7030    8.4950    1.1430 C.3    98  LEU98       0.0022
    148  CD1       -2.5790    8.0970   -0.0460 C.3    98  LEU98       0.0001
    149  CD2       -1.0080    7.2510    1.7010 C.3    98  LEU98       0.0001
@<TRIPOS>BOND
     1   120   121    2
     2   120   119    1
     3   118   119    1
     4   119   122    1
     5   122   123    1
     6   124   123   ar
     7   124   126   ar
     8   123   125   ar
     9   136   135   ar
    10   130   131    1
    11   126   128   ar
    12   135   134    1
    13   135   137   ar
    14   125   127   ar
    15   134   131    1
    16   131   132    1
    17    12    13    1
    18   148   147    1
    19    13    16    1
    20    13    14    1
    21   128   127   ar
    22   128   129    1
    23   146   147    1
    24   146   143    1
    25    16    17    1
    26   132   138   am
    27   132   133    2
    28    14    15    2
    29   138   139    1
    30   147   149    1
    31    49    48    2
    32   142   143    1
    33   142   140   am
    34   110   108    1
    35   143   144    1
    36   144   145    2
    37    17    18    1
    38    48    47    1
    39   139   140    1
    40   140   141    2
    41    46    47    1
    42   108   107    1
    43    18    19    1
    44   103   104    1
    45    95    94    2
    46    47    50    1
    47   107   104    1
    48   107   109    1
    49    19    20    2
    50   117   115    1
    51    75    76    1
    52    75    72    1
    53    74    73    2
    54    77    76   ar
    55    77    79   ar
    56    55    54    2
    57   104   105    1
    58    76    78   ar
    59    50    51    1
    60    79    81   ar
    61    94    93    1
    62    78    80   ar
    63    92    93    1
    64   111   105   am
    65   111   112    1
    66    20    21    1
    67    20    22    1
    68    52    53    1
    69    81    80   ar
    70    81    82    1
    71   114   113    2
    72   115   112    1
    73   115   116    1
    74    73    72    1
    75    73    83   am
    76    71    72    1
    77    71    63   am
    78   105   106    2
    79    56    53    1
    80    56    57    1
    81    54    53    1
    82    54    61   am
    83    85    86    2
    84    85    84    1
    85    93    96    1
    86   112   113    1
    87    57    58    1
    88    59    58    1
    89    59    60    1
    90    62    63    1
    91    62    61    1
    92    62    65    1
    93    63    64    2
    94    83    84    1
    95    84    87    1
    96    96    97    1
    97     4     3    2
    98    70    68   ar
    99    70    69   ar
   100    68    66   ar
   101    69    67   ar
   102    66    67   ar
   103    66    65    1
   104    28    29    1
   105    28    27    1
   106    97    98    1
   107    31    29   ar
   108    23    24    1
   109     1     2    1
   110     3     2    1
   111     2     5    1
   112    29    30   ar
   113    87    88    1
   114    27    24    1
   115    24    25    1
   116    98    99    1
   117    88    89    1
   118     5     6    1
   119    44    43    1
   120    43    45    1
   121    43    40    1
   122    99   100    2
   123     6     7    1
   124    89    90    1
   125    25    32   am
   126    25    26    2
   127    41    42    2
   128    41    40    1
   129    32    33    1
   130    40    39    1
   131    39    34   am
   132   100   102    1
   133   100   101    1
   134     7     8    1
   135    90    91    1
   136    37    36    1
   137    33    34    1
   138    33    36    1
   139    34    35    2
   140     8     9    2
   141    38    36    1
   142    10     9    1
   143     9    11    1
