@<TRIPOS>MOLECULE
tmp/1hdcA00.pdb
 209 200 0 0 0
SMALL
GASTEIGER

@<TRIPOS>ATOM
      1  N        -12.9780    5.0010  -23.0020 N.3    17  LEU17      -0.1245
      2  CA       -13.4400    5.0070  -21.6000 C.3    17  LEU17       0.1561
      3  C        -14.2550    6.2450  -21.1620 C.2    17  LEU17       0.2260
      4  O        -15.0890    6.1730  -20.2400 O.2    17  LEU17      -0.2867
      5  CB       -12.2330    4.8590  -20.6880 C.3    17  LEU17       0.0270
      6  CG       -12.1160    3.6770  -19.7290 C.3    17  LEU17       0.0019
      7  CD1      -10.6500    3.5750  -19.2120 C.3    17  LEU17       0.0001
      8  CD2      -13.1250    3.8470  -18.5830 C.3    17  LEU17       0.0001
      9  N        -11.1290   11.8390  -16.6980 N.3    86  ASN86      -0.1240
     10  CA       -10.6500   10.7820  -17.5700 C.3    86  ASN86       0.1653
     11  C         -9.6110   11.1570  -18.6120 C.2    86  ASN86       0.2266
     12  O         -9.0470   10.2590  -19.2480 O.2    86  ASN86      -0.2867
     13  CB       -11.8460   10.0980  -18.2490 C.3    86  ASN86       0.1155
     14  CG       -11.4410    8.9160  -19.1240 C.2    86  ASN86       0.2627
     15  OD1      -12.0100    8.7040  -20.1990 O.2    86  ASN86      -0.2716
     16  ND2      -10.4440    8.1520  -18.6810 N.am   86  ASN86      -0.0877
     17  N         -6.0860   12.3540  -20.4250 N.3    88  GLY88      -0.1210
     18  CA        -4.6520   12.2000  -20.2530 C.3    88  GLY88       0.1956
     19  C         -4.0490   11.6040  -21.5090 C.2    88  GLY88       0.2612
     20  O         -4.7270   11.5030  -22.5350 O.2    88  GLY88      -0.2717
     21  N         -2.7540   11.3090  -21.4670 N.am   89  ILE89      -0.1965
     22  CA        -2.0670   10.7000  -22.5950 C.3    89  ILE89       0.1727
     23  C         -1.0070    9.7790  -22.0400 C.2    89  ILE89       0.2617
     24  O         -0.3700   10.0930  -21.0440 O.2    89  ILE89      -0.2715
     25  CB        -1.4590   11.7210  -23.5620 C.3    89  ILE89       0.0290
     26  CG1       -0.5640   12.7130  -22.8410 C.3    89  ILE89       0.0022
     27  CG2       -2.5620   12.4650  -24.3070 C.3    89  ILE89       0.0023
     28  CD1        0.2150   13.5590  -23.8390 C.3    89  ILE89       0.0001
     29  N         -0.8440    8.6310  -22.6780 N.am   90  SER90      -0.1936
     30  CA         0.0810    7.5920  -22.2210 C.3    90  SER90       0.2055
     31  C          1.5550    7.7370  -22.5630 C.2    90  SER90       0.2644
     32  O          1.9380    8.5180  -23.4280 O.2    90  SER90      -0.2714
     33  CB        -0.3970    6.2460  -22.7570 C.3    90  SER90       0.2130
     34  OG        -0.3870    6.2620  -24.1720 O.3    90  SER90      -0.2179
     35  N          2.3730    6.9040  -21.9320 N.am   91  THR91      -0.1936
     36  CA         3.7780    6.9250  -22.2090 C.3    91  THR91       0.2028
     37  C          4.1790    5.4800  -22.2780 C.2    91  THR91       0.2643
     38  O          3.7620    4.7110  -21.4350 O.2    91  THR91      -0.2714
     39  CB         4.5540    7.5980  -21.0940 C.3    91  THR91       0.1808
     40  OG1        4.0030    8.8910  -20.8870 O.3    91  THR91      -0.2208
     41  CG2        6.0360    7.7030  -21.4500 C.3    91  THR91       0.0379
     42  N          4.9750    5.1360  -23.2880 N.am   92  GLY92      -0.1939
     43  CA         5.4490    3.7860  -23.4680 C.3    92  GLY92       0.2014
     44  C          6.8780    3.8240  -23.9650 C.2    92  GLY92       0.2638
     45  O          7.1120    3.6200  -25.1640 O.2    92  GLY92      -0.2714
     46  N          7.8220    4.0830  -23.0420 N.am   93  MET93      -0.1976
     47  CA         9.2750    4.1420  -23.3190 C.3    93  MET93       0.1605
     48  C         10.1260    4.1220  -22.0470 C.2    93  MET93       0.2287
     49  O          9.6760    4.5270  -20.9840 O.2    93  MET93      -0.2864
     50  CB         9.6310    5.4140  -24.0890 C.3    93  MET93       0.0413
     51  CG         9.6230    6.7050  -23.2680 C.3    93  MET93       0.0598
     52  SD         9.4430    8.0530  -24.4400 S.3    93  MET93      -0.1393
     53  CE         7.8330    8.6270  -24.0960 C.3    93  MET93       0.0692
     54  N         -9.5980    9.1730  -12.8130 N.3   136  ILE136     -0.1231
     55  CA        -9.2070    8.0050  -13.5710 C.3   136  ILE136      0.1692
     56  C         -7.7150    7.8440  -13.6690 C.2   136  ILE136      0.2593
     57  O         -7.1070    8.2800  -14.6300 O.2   136  ILE136     -0.2718
     58  CB        -9.7990    8.0620  -14.9630 C.3   136  ILE136      0.0266
     59  CG1      -11.3240    8.0890  -14.8580 C.3   136  ILE136      0.0019
     60  CG2       -9.3530    6.8870  -15.7740 C.3   136  ILE136      0.0020
     61  CD1      -11.9370    6.8270  -14.2150 C.3   136  ILE136      0.0001
     62  N         -7.1380    7.1950  -12.6700 N.am  137  SER137     -0.1938
     63  CA        -5.7010    6.9400  -12.6120 C.3   137  SER137      0.2055
     64  C         -5.3590    5.6610  -13.4450 C.2   137  SER137      0.2644
     65  O         -5.9820    5.4040  -14.4880 O.2   137  SER137     -0.2714
     66  CB        -5.3320    6.8120  -11.1500 C.3   137  SER137      0.2130
     67  OG        -4.0060    6.3960  -10.9560 O.3   137  SER137     -0.2179
     68  N         -4.4320    4.8200  -12.9950 N.am  138  SER138     -0.1935
     69  CA        -4.1420    3.6380  -13.8150 C.3   138  SER138      0.2055
     70  C         -3.5060    2.5050  -13.0320 C.2   138  SER138      0.2643
     71  O         -3.1830    2.6730  -11.8400 O.2   138  SER138     -0.2714
     72  CB        -3.1970    4.0310  -14.9750 C.3   138  SER138      0.2130
     73  OG        -3.0440    2.9800  -15.9270 O.3   138  SER138     -0.2179
     74  N         -3.3760    1.3380  -13.6820 N.am  139  ALA139     -0.1963
     75  CA        -2.6670    0.2180  -13.0680 C.3   139  ALA139      0.1728
     76  C         -1.2290    0.7550  -12.8970 C.2   139  ALA139      0.2616
     77  O         -0.4820    0.3090  -12.0160 O.2   139  ALA139     -0.2715
     78  CB        -2.6600   -0.9590  -13.9940 C.3   139  ALA139      0.0334
     79  N         -0.8500    1.7140  -13.7510 N.am  140  ALA140     -0.1977
     80  CA         0.4600    2.3750  -13.7090 C.3   140  ALA140      0.1597
     81  C          0.6240    3.2920  -12.4860 C.2   140  ALA140      0.2287
     82  O          1.6760    3.9290  -12.2960 O.2   140  ALA140     -0.2864
     83  CB         0.6630    3.1570  -14.9690 C.3   140  ALA140      0.0319
     84  N          4.8230    0.5550  -13.0320 N.3   145  LEU145     -0.1231
     85  CA         4.7290   -0.0460  -14.3510 C.3   145  LEU145      0.1693
     86  C          5.9080    0.4640  -15.2010 C.2   145  LEU145      0.2592
     87  O          6.0320    1.6620  -15.4650 O.2   145  LEU145     -0.2718
     88  CB         3.3900    0.3260  -14.9900 C.3   145  LEU145      0.0284
     89  CG         2.3280   -0.7040  -15.4150 C.3   145  LEU145      0.0019
     90  CD1        1.6870   -0.2120  -16.7120 C.3   145  LEU145      0.0001
     91  CD2        2.9640   -2.0870  -15.6360 C.3   145  LEU145      0.0001
     92  N          6.8000   -0.4300  -15.6050 N.am  146  ALA146     -0.1966
     93  CA         7.9550   -0.0230  -16.3990 C.3   146  ALA146      0.1728
     94  C          7.4580    0.5550  -17.7040 C.2   146  ALA146      0.2616
     95  O          6.3030    0.3400  -18.0740 O.2   146  ALA146     -0.2715
     96  CB         8.8560   -1.2070  -16.6700 C.3   146  ALA146      0.0334
     97  N          8.3320    1.2960  -18.3820 N.am  147  LEU147     -0.1963
     98  CA         8.0430    1.9250  -19.6830 C.3   147  LEU147      0.1728
     99  C          6.9570    3.0100  -19.7220 C.2   147  LEU147      0.2616
    100  O          6.5160    3.4270  -20.7800 O.2   147  LEU147     -0.2715
    101  CB         7.7290    0.8440  -20.7350 C.3   147  LEU147      0.0311
    102  CG         8.5550   -0.4540  -20.6860 C.3   147  LEU147      0.0022
    103  CD1        8.4010   -1.2810  -21.9820 C.3   147  LEU147      0.0001
    104  CD2       10.0410   -0.0950  -20.3740 C.3   147  LEU147      0.0001
    105  N          6.4940    3.4470  -18.5730 N.am  148  THR148     -0.1951
    106  CA         5.4480    4.4500  -18.5500 C.3   148  THR148      0.1897
    107  C          5.9590    5.8250  -18.1200 C.2   148  THR148      0.2313
    108  O          5.2420    6.8050  -18.2240 O.2   148  THR148     -0.2863
    109  CB         4.2320    3.9780  -17.6900 C.3   148  THR148      0.1794
    110  OG1        4.6870    3.5510  -16.3970 O.3   148  THR148     -0.2208
    111  CG2        3.5050    2.8370  -18.3990 C.3   148  THR148      0.0378
    112  N          3.9310    9.0020  -17.4480 N.3   151  TYR151     -0.1241
    113  CA         2.5790    8.4940  -17.1870 C.3   151  TYR151      0.1605
    114  C          2.5110    7.7640  -15.8610 C.2   151  TYR151      0.2264
    115  O          1.4760    7.7930  -15.1870 O.2   151  TYR151     -0.2867
    116  CB         2.1050    7.6070  -18.3260 C.3   151  TYR151      0.0534
    117  CG         0.7350    6.9750  -18.1320 C.ar  151  TYR151     -0.0201
    118  CD1        0.6010    5.7420  -17.4740 C.ar  151  TYR151     -0.0009
    119  CD2       -0.4020    7.5400  -18.6940 C.ar  151  TYR151     -0.0009
    120  CE1       -0.6280    5.0830  -17.3860 C.ar  151  TYR151      0.0417
    121  CE2       -1.6580    6.8740  -18.6200 C.ar  151  TYR151      0.0417
    122  CZ        -1.7490    5.6480  -17.9660 C.ar  151  TYR151      0.1957
    123  OH        -2.9410    4.9770  -17.9010 O.3   151  TYR151     -0.2866
    124  N          0.1150    9.5140  -13.0590 N.3   155  LYS155     -0.1245
    125  CA        -0.8990    8.7160  -12.4060 C.3   155  LYS155      0.1561
    126  C         -0.7400    8.4090  -10.9390 C.2   155  LYS155      0.2260
    127  O         -1.7350    8.1390  -10.2620 O.2   155  LYS155     -0.2867
    128  CB        -1.1090    7.4540  -13.1990 C.3   155  LYS155      0.0271
    129  CG        -1.6210    7.7160  -14.5890 C.3   155  LYS155      0.0035
    130  CD        -2.9360    8.4400  -14.5600 C.3   155  LYS155      0.0206
    131  CE        -3.5770    8.4550  -15.9350 C.3   155  LYS155      0.1093
    132  NZ        -4.7940    9.3350  -15.9790 N.3   155  LYS155     -0.1314
    133  N         -7.8700    1.4100  -13.8080 N.3   181  PRO181     -0.2102
    134  CA        -7.9780    0.3150  -14.7700 C.3   181  PRO181      0.1504
    135  C         -6.6300   -0.2530  -15.1830 C.2   181  PRO181      0.2576
    136  O         -5.5960    0.4170  -15.0340 O.2   181  PRO181     -0.2718
    137  CB        -8.6340    0.9970  -15.9550 C.3   181  PRO181      0.0282
    138  CG        -8.1990    2.4200  -15.8310 C.3   181  PRO181      0.0208
    139  CD        -8.4510    2.6280  -14.3800 C.3   181  PRO181      0.0893
    140  N         -6.6400   -1.4870  -15.6920 N.am  182  GLY182     -0.1943
    141  CA        -5.4290   -2.1230  -16.1620 C.3   182  GLY182      0.2014
    142  C         -5.6110   -2.1830  -17.6520 C.2   182  GLY182      0.2639
    143  O         -6.4870   -1.4980  -18.1760 O.2   182  GLY182     -0.2714
    144  N         -4.8780   -3.0380  -18.3540 N.am  183  MET183     -0.1963
    145  CA        -5.0230   -3.1100  -19.7980 C.3   183  MET183      0.1736
    146  C         -6.4470   -3.2470  -20.3310 C.2   183  MET183      0.2617
    147  O         -6.9650   -4.3450  -20.4810 O.2   183  MET183     -0.2715
    148  CB        -4.1760   -4.2370  -20.3820 C.3   183  MET183      0.0427
    149  CG        -4.0610   -4.1520  -21.8960 C.3   183  MET183      0.0599
    150  SD        -2.5180   -3.2010  -22.2960 S.3   183  MET183     -0.1393
    151  CE        -3.2450   -1.6660  -22.6030 C.3   183  MET183      0.0692
    152  N         -7.0450   -2.1250  -20.7020 N.am  184  THR184     -0.1951
    153  CA        -8.4020   -2.0810  -21.2610 C.3   184  THR184      0.1897
    154  C         -8.2870   -1.9880  -22.7870 C.2   184  THR184      0.2313
    155  O         -7.2650   -1.4900  -23.3040 O.2   184  THR184     -0.2863
    156  CB        -9.1170   -0.8210  -20.7700 C.3   184  THR184      0.1794
    157  OG1       -8.9650   -0.7330  -19.3550 O.3   184  THR184     -0.2208
    158  CG2      -10.5860   -0.8530  -21.1250 C.3   184  THR184      0.0378
    159  N         -9.1510   -0.2280  -25.9170 N.3   186  THR186     -0.1218
    160  CA        -9.5260    1.0750  -26.4590 C.3   186  THR186      0.1862
    161  C         -8.7700    1.2560  -27.7690 C.2   186  THR186      0.2287
    162  O         -7.8620    0.4810  -28.0780 O.2   186  THR186     -0.2866
    163  CB        -9.0580    2.2080  -25.4760 C.3   186  THR186      0.1770
    164  OG1       -9.5990    3.4750  -25.8600 O.3   186  THR186     -0.2211
    165  CG2       -7.5460    2.3350  -25.4880 C.3   186  THR186      0.0375
    166  N         -6.6210    3.5260  -28.6070 N.3   188  MET188     -0.1230
    167  CA        -5.2150    3.7850  -28.2910 C.3   188  MET188      0.1702
    168  C         -4.4650    2.4920  -28.0080 C.2   188  MET188      0.2593
    169  O         -3.2810    2.3730  -28.3380 O.2   188  MET188     -0.2718
    170  CB        -5.0830    4.7400  -27.0860 C.3   188  MET188      0.0401
    171  CG        -4.4020    4.1740  -25.7910 C.3   188  MET188      0.0596
    172  SD        -2.5830    4.4350  -25.5220 S.3   188  MET188     -0.1393
    173  CE        -1.9290    2.7790  -25.8180 C.3   188  MET188      0.0692
    174  N         -5.1580    1.5100  -27.4360 N.am  189  THR189     -0.1953
    175  CA        -4.5210    0.2490  -27.0930 C.3   189  THR189      0.1897
    176  C         -4.6530   -0.8390  -28.1500 C.2   189  THR189      0.2313
    177  O         -3.8340   -1.7530  -28.2120 O.2   189  THR189     -0.2863
    178  CB        -4.9670   -0.2310  -25.7010 C.3   189  THR189      0.1794
    179  OG1       -6.3860   -0.4360  -25.6830 O.3   189  THR189     -0.2208
    180  CG2       -4.6050    0.8250  -24.6480 C.3   189  THR189      0.0378
    181  N         -1.5900   -0.8970  -30.2180 N.3   192  THR192     -0.1218
    182  CA        -0.5000   -1.5760  -29.5090 C.3   192  THR192      0.1862
    183  C         -0.2640   -3.0530  -29.8610 C.2   192  THR192      0.2287
    184  O          0.8740   -3.5170  -29.9040 O.2   192  THR192     -0.2866
    185  CB        -0.7660   -1.4830  -27.9920 C.3   192  THR192      0.1770
    186  OG1       -0.8540   -0.1020  -27.6050 O.3   192  THR192     -0.2211
    187  CG2        0.3120   -2.1810  -27.1900 C.3   192  THR192      0.0375
    188  N         -2.7570   -5.3670  -28.5300 N.3   194  ILE194     -0.1245
    189  CA        -3.6660   -5.9500  -27.5670 C.3   194  ILE194      0.1561
    190  C         -4.8430   -6.5290  -28.3280 C.2   194  ILE194      0.2260
    191  O         -5.2300   -5.9990  -29.3740 O.2   194  ILE194     -0.2867
    192  CB        -4.1670   -4.8480  -26.6100 C.3   194  ILE194      0.0252
    193  CG1       -2.9970   -4.3080  -25.7980 C.3   194  ILE194      0.0019
    194  CG2       -5.2720   -5.3380  -25.7280 C.3   194  ILE194      0.0019
    195  CD1       -2.1060   -5.3790  -25.1970 C.3   194  ILE194      0.0001
    196  N         -4.0910   -7.7820  -12.5980 N.3   241  TRP241     -0.1241
    197  CA        -2.7500   -7.4920  -13.1010 C.3   241  TRP241      0.1605
    198  C         -1.8990   -6.9240  -11.9740 C.2   241  TRP241      0.2264
    199  O         -0.8070   -7.3800  -11.6820 O.2   241  TRP241     -0.2867
    200  CB        -2.8430   -6.4810  -14.2570 C.3   241  TRP241      0.0550
    201  CG        -1.5710   -6.3070  -15.0480 C.ar  241  TRP241      0.0003
    202  CD1       -0.5770   -7.2250  -15.2050 C.ar  241  TRP241      0.0946
    203  CD2       -1.1740   -5.1570  -15.8280 C.ar  241  TRP241      0.0152
    204  NE1        0.4020   -6.7300  -16.0340 N.ar  241  TRP241     -0.2442
    205  CE2        0.0630   -5.4640  -16.4280 C.ar  241  TRP241      0.0810
    206  CE3       -1.7520   -3.9040  -16.0730 C.ar  241  TRP241      0.0012
    207  CZ2        0.7430   -4.5660  -17.2630 C.ar  241  TRP241      0.0191
    208  CZ3       -1.0730   -3.0080  -16.9060 C.ar  241  TRP241      0.0001
    209  CH2        0.1610   -3.3480  -17.4890 C.ar  241  TRP241      0.0015
@<TRIPOS>BOND
     1   181   182    1
     2   184   183    2
     3   183   182    1
     4   182   185    1
     5   191   190    2
     6   166   167    1
     7   188   189    1
     8   169   168    2
     9   190   189    1
    10   167   168    1
    11   167   170    1
    12   177   176    2
    13   176   175    1
    14   162   161    2
    15   168   174   am
    16   185   186    1
    17   185   187    1
    18   161   160    1
    19   189   192    1
    20   174   175    1
    21   175   178    1
    22   170   171    1
    23   192   193    1
    24   192   194    1
    25   160   159    1
    26   160   163    1
    27   164   163    1
    28   173   172    1
    29   193   195    1
    30   171   172    1
    31   178   179    1
    32   178   180    1
    33   165   163    1
    34    45    44    2
    35    52    53    1
    36    52    51    1
    37    27    25    1
    38    34    33    1
    39    50    47    1
    40    50    51    1
    41    44    43    1
    42    44    46   am
    43    28    26    1
    44    25    26    1
    45    25    22    1
    46    43    42    1
    47    32    31    2
    48    47    46    1
    49    47    48    1
    50   155   154    2
    51    42    37   am
    52     1     2    1
    53   154   153    1
    54    33    30    1
    55    29    30    1
    56    29    23   am
    57   151   150    1
    58    22    23    1
    59    22    21    1
    60    31    30    1
    61    31    35   am
    62    20    19    2
    63   150   149    1
    64    37    36    1
    65    37    38    2
    66    36    35    1
    67    36    39    1
    68    48    49    2
    69    23    24    2
    70   103   102    1
    71   149   148    1
    72     2     3    1
    73     2     5    1
    74    19    21   am
    75    19    18    1
    76    41    39    1
    77   153   156    1
    78   153   152    1
    79     3     4    2
    80   158   156    1
    81    39    40    1
    82   100    99    2
    83   156   157    1
    84   101   102    1
    85   101    98    1
    86   152   146   am
    87     5     6    1
    88   102   104    1
    89   147   146    2
    90    17    18    1
    91   148   145    1
    92   146   145    1
    93    15    14    2
    94   145   144    1
    95     6     7    1
    96     6     8    1
    97    99    98    1
    98    99   105   am
    99    98    97    1
   100    12    11    2
   101    14    16   am
   102    14    13    1
   103   119   121   ar
   104   119   117   ar
   105   121   122   ar
   106    11    10    1
   107   105   106    1
   108   106   107    1
   109   106   109    1
   110   111   109    1
   111    97    94   am
   112   144   142   am
   113   116   117    1
   114   116   113    1
   115    13    10    1
   116   108   107    2
   117   143   142    2
   118   117   118   ar
   119    95    94    2
   120   122   123    1
   121   122   120   ar
   122    94    93    1
   123   109   110    1
   124   142   141    1
   125    10     9    1
   126   209   207   ar
   127   209   208   ar
   128   118   120   ar
   129   112   113    1
   130   207   205   ar
   131   113   114    1
   132   208   206   ar
   133    90    89    1
   134    96    93    1
   135   205   204   ar
   136   205   203   ar
   137    93    92    1
   138   141   140    1
   139   206   203   ar
   140   204   202   ar
   141   132   131    1
   142   137   138    1
   143   137   134    1
   144   131   130    1
   145    73    72    1
   146   114   115    2
   147   138   139    1
   148   203   201   ar
   149    60    58    1
   150   140   135   am
   151    91    89    1
   152    92    86   am
   153    87    86    2
   154    89    88    1
   155   202   201   ar
   156    86    85    1
   157   135   136    2
   158   135   134    1
   159   201   200    1
   160    88    85    1
   161    72    69    1
   162    83    80    1
   163    58    59    1
   164    58    55    1
   165    59    61    1
   166   134   133    1
   167    57    56    2
   168   129   130    1
   169   129   128    1
   170    65    64    2
   171   139   133    1
   172    85    84    1
   173   200   197    1
   174    78    75    1
   175    69    70    1
   176    69    68    1
   177    79    80    1
   178    79    76   am
   179    80    81    1
   180    74    75    1
   181    74    70   am
   182    56    55    1
   183    56    62   am
   184    55    54    1
   185    64    68   am
   186    64    63    1
   187   128   125    1
   188   197   196    1
   189   197   198    1
   190    75    76    1
   191   124   125    1
   192    70    71    2
   193    76    77    2
   194    62    63    1
   195    63    66    1
   196    81    82    2
   197   125   126    1
   198   198   199    2
   199    66    67    1
   200   126   127    2
