@<TRIPOS>MOLECULE
tmp/1hdiA00.pdb
 154 149 0 0 0
SMALL
GASTEIGER

@<TRIPOS>ATOM
      1  N         23.8520   13.9990   24.5230 N.3   210  GLY210     -0.1210
      2  CA        23.3620   15.2630   23.9990 C.3   210  GLY210      0.1956
      3  C         21.9650   15.1340   23.4310 C.2   210  GLY210      0.2612
      4  O         21.3810   14.0530   23.4510 O.2   210  GLY210     -0.2717
      5  N         21.4840   16.2190   22.8340 N.am  211  ALA211     -0.1965
      6  CA        20.1370   16.2800   22.2770 C.3   211  ALA211      0.1728
      7  C         20.0470   16.0350   20.7690 C.2   211  ALA211      0.2616
      8  O         19.4160   15.0830   20.3010 O.2   211  ALA211     -0.2715
      9  CB        19.5240   17.6290   22.5980 C.3   211  ALA211      0.0334
     10  N         20.6360   16.9430   20.0170 N.am  212  LYS212     -0.1977
     11  CA        20.5920   16.8910   18.5660 C.3   212  LYS212      0.1596
     12  C         21.5400   15.8770   17.9570 C.2   212  LYS212      0.2287
     13  O         22.5960   15.5910   18.5080 O.2   212  LYS212     -0.2864
     14  CB        20.8720   18.2750   17.9880 C.3   212  LYS212      0.0298
     15  CG        20.7140   19.4210   18.9870 C.3   212  LYS212      0.0038
     16  CD        20.4170   20.7260   18.2860 C.3   212  LYS212      0.0206
     17  CE        19.3840   20.5120   17.1840 C.3   212  LYS212      0.1093
     18  NZ        19.0520   21.7780   16.4850 N.3   212  LYS212     -0.1314
     19  N         23.7930   18.0020   14.2200 N.3   215  ASP215     -0.1225
     20  CA        25.0150   18.7450   14.5070 C.3   215  ASP215      0.1805
     21  C         26.1660   17.8540   14.9850 C.2   215  ASP215      0.2597
     22  O         27.2700   18.3400   15.2150 O.2   215  ASP215     -0.2718
     23  CB        24.7600   19.8340   15.5520 C.3   215  ASP215      0.1424
     24  CG        24.5620   19.2660   16.9440 C.2   215  ASP215      0.3668
     25  OD1       25.4480   19.4560   17.8170 O.co2 215  ASP215     -0.2456
     26  OD2       23.5390   18.5900   17.1460 O.co2 215  ASP215     -0.2456
     27  N         25.9220   16.5540   15.1040 N.am  216  LYS216     -0.1979
     28  CA        26.9510   15.6360   15.5550 C.3   216  LYS216      0.1596
     29  C         27.2850   14.5630   14.5230 C.2   216  LYS216      0.2287
     30  O         28.0340   13.6360   14.8120 O.2   216  LYS216     -0.2864
     31  CB        26.5350   14.9820   16.8690 C.3   216  LYS216      0.0298
     32  CG        26.2990   15.9870   17.9930 C.3   216  LYS216      0.0038
     33  CD        25.9700   15.2580   19.2790 C.3   216  LYS216      0.0206
     34  CE        25.5740   16.2160   20.4080 C.3   216  LYS216      0.1093
     35  NZ        24.2450   16.8210   20.1420 N.3   216  LYS216     -0.1314
     36  N         21.6260   10.0020   25.6860 N.3   234  GLY234     -0.1210
     37  CA        21.0110   11.3120   25.7320 C.3   234  GLY234      0.1956
     38  C         19.7890   11.3690   24.8290 C.2   234  GLY234      0.2612
     39  O         19.2630   10.3310   24.4030 O.2   234  GLY234     -0.2717
     40  N         19.3960   12.5820   24.4590 N.am  235  GLY235     -0.1956
     41  CA        18.2270   12.7610   23.6080 C.3   235  GLY235      0.1869
     42  C         18.4490   12.2300   22.2060 C.2   235  GLY235      0.2309
     43  O         17.5210   11.7830   21.5450 O.2   235  GLY235     -0.2863
     44  N         16.9350    8.7980   20.7860 N.3   238  PHE238     -0.1241
     45  CA        15.5470    8.6480   20.3610 C.3   238  PHE238      0.1605
     46  C         15.3330    8.6670   18.8730 C.2   238  PHE238      0.2264
     47  O         14.3990    8.0320   18.3730 O.2   238  PHE238     -0.2867
     48  CB        14.6430    9.6340   21.0800 C.3   238  PHE238      0.0534
     49  CG        14.5990    9.3990   22.5560 C.ar  238  PHE238     -0.0203
     50  CD1       15.1350   10.3280   23.4440 C.ar  238  PHE238     -0.0042
     51  CD2       14.0840    8.1980   23.0580 C.ar  238  PHE238     -0.0042
     52  CE1       15.1680   10.0700   24.8100 C.ar  238  PHE238     -0.0003
     53  CE2       14.1150    7.9350   24.4210 C.ar  238  PHE238     -0.0003
     54  CZ        14.6550    8.8710   25.3000 C.ar  238  PHE238     -0.0000
     55  N         12.7340   14.0050   22.2490 N.3   253  LEU253     -0.1245
     56  CA        13.4180   14.6600   21.1290 C.3   253  LEU253      0.1561
     57  C         13.5920   13.7330   19.9220 C.2   253  LEU253      0.2260
     58  O         13.9230   12.5520   20.0700 O.2   253  LEU253     -0.2867
     59  CB        14.7990   15.1820   21.5510 C.3   253  LEU253      0.0270
     60  CG        14.7950   16.2820   22.6000 C.3   253  LEU253      0.0019
     61  CD1       16.2010   16.8600   22.7510 C.3   253  LEU253      0.0001
     62  CD2       13.8080   17.3640   22.2230 C.3   253  LEU253      0.0001
     63  N          9.1210   18.6800   29.9000 N.3   288  PHE288     -0.1241
     64  CA        10.5130   19.0940   30.0520 C.3   288  PHE288      0.1605
     65  C         10.6200   20.1450   31.1530 C.2   288  PHE288      0.2264
     66  O         10.6890   21.3510   30.8810 O.2   288  PHE288     -0.2867
     67  CB        11.0280   19.6540   28.7260 C.3   288  PHE288      0.0534
     68  CG        12.5300   19.7810   28.6640 C.ar  288  PHE288     -0.0203
     69  CD1       13.3310   18.6450   28.5720 C.ar  288  PHE288     -0.0042
     70  CD2       13.1340   21.0340   28.6970 C.ar  288  PHE288     -0.0042
     71  CE1       14.7210   18.7570   28.5080 C.ar  288  PHE288     -0.0003
     72  CE2       14.5200   21.1510   28.6320 C.ar  288  PHE288     -0.0003
     73  CZ        15.3150   20.0020   28.5360 C.ar  288  PHE288     -0.0000
     74  N          8.1610   12.2400   27.7520 N.3   308  MET308     -0.1230
     75  CA         9.4510   12.2080   27.0580 C.3   308  MET308      0.1702
     76  C         10.5350   11.5150   27.8910 C.2   308  MET308      0.2593
     77  O         10.5090   11.5530   29.1160 O.2   308  MET308     -0.2718
     78  CB         9.8850   13.6210   26.6510 C.3   308  MET308      0.0401
     79  CG         9.9640   14.6560   27.7870 C.3   308  MET308      0.0596
     80  SD        10.2050   16.3830   27.2160 S.3   308  MET308     -0.1393
     81  CE        11.7630   16.2560   26.2150 C.3   308  MET308      0.0692
     82  N         11.4640   10.8370   27.2200 N.am  309  GLY309     -0.1942
     83  CA        12.5400   10.1580   27.9200 C.3   309  GLY309      0.2014
     84  C         13.6500   11.1670   28.1940 C.2   309  GLY309      0.2639
     85  O         14.1890   11.7660   27.2600 O.2   309  GLY309     -0.2714
     86  N         13.9230   11.4380   29.4650 N.am  310  LEU310     -0.1963
     87  CA        14.9720   12.3860   29.8180 C.3   310  LEU310      0.1728
     88  C         16.2360   11.7730   30.4010 C.2   310  LEU310      0.2616
     89  O         17.1790   12.4980   30.6920 O.2   310  LEU310     -0.2715
     90  CB        14.4430   13.4600   30.7640 C.3   310  LEU310      0.0311
     91  CG        13.2770   14.2870   30.2010 C.3   310  LEU310      0.0022
     92  CD1       13.0050   15.4570   31.1730 C.3   310  LEU310      0.0001
     93  CD2       13.6520   14.8640   28.8110 C.3   310  LEU310      0.0001
     94  N         16.2420   10.4560   30.6460 N.am  311  ASP311     -0.1971
     95  CA        17.4250    9.7740   31.1530 C.3   311  ASP311      0.1709
     96  C         17.2810    8.2960   30.8180 C.2   311  ASP311      0.2293
     97  O         16.1940    7.8480   30.4430 O.2   311  ASP311     -0.2864
     98  CB        17.5770    9.9510   32.6730 C.3   311  ASP311      0.1436
     99  CG        18.9640    9.5620   33.1790 C.2   311  ASP311      0.3671
    100  OD1       19.1050    9.4530   34.4040 O.co2 311  ASP311     -0.2456
    101  OD2       19.9100    9.3960   32.3790 O.co2 311  ASP311     -0.2456
    102  N         26.5730   14.1530   28.3270 N.3   335  PRO335     -0.2102
    103  CA        25.9100   13.3200   29.3310 C.3   335  PRO335      0.1504
    104  C         24.7770   12.5020   28.6970 C.2   335  PRO335      0.2576
    105  O         24.3250   12.8130   27.5850 O.2   335  PRO335     -0.2718
    106  CB        25.3930   14.3470   30.3310 C.3   335  PRO335      0.0282
    107  CG        26.5300   15.3280   30.3600 C.3   335  PRO335      0.0208
    108  CD        26.7710   15.5220   28.8520 C.3   335  PRO335      0.0893
    109  N         24.3760   11.4330   29.3790 N.am  336  VAL336     -0.1966
    110  CA        23.3610   10.5210   28.8680 C.3   336  VAL336      0.1727
    111  C         21.9050   10.8230   29.2440 C.2   336  VAL336      0.2617
    112  O         21.0120   10.0070   29.0150 O.2   336  VAL336     -0.2715
    113  CB        23.7060    9.0460   29.2320 C.3   336  VAL336      0.0290
    114  CG1       25.0860    8.6940   28.6550 C.3   336  VAL336      0.0023
    115  CG2       23.6670    8.8310   30.7600 C.3   336  VAL336      0.0023
    116  N         21.7010   11.9490   29.9010 N.am  337  GLY337     -0.1940
    117  CA        20.3710   12.3810   30.3010 C.3   337  GLY337      0.2014
    118  C         20.4520   13.8510   30.6900 C.2   337  GLY337      0.2639
    119  O         21.5460   14.4400   30.6220 O.2   337  GLY337     -0.2714
    120  N         19.3370   14.4340   31.1260 N.am  338  VAL338     -0.1963
    121  CA        19.2850   15.8550   31.5080 C.3   338  VAL338      0.1727
    122  C         19.9650   16.0160   32.8790 C.2   338  VAL338      0.2616
    123  O         19.2970   16.1630   33.9100 O.2   338  VAL338     -0.2715
    124  CB        17.8070   16.3680   31.5220 C.3   338  VAL338      0.0290
    125  CG1       17.7670   17.8920   31.7700 C.3   338  VAL338      0.0023
    126  CG2       17.1170   16.0600   30.1520 C.3   338  VAL338      0.0023
    127  N         21.2930   16.0380   32.8450 N.am  339  PHE339     -0.1960
    128  CA        22.1360   16.1110   34.0430 C.3   339  PHE339      0.1771
    129  C         21.9110   17.3410   34.9310 C.2   339  PHE339      0.2619
    130  O         22.3280   17.3640   36.0900 O.2   339  PHE339     -0.2715
    131  CB        23.6180   16.0330   33.6350 C.3   339  PHE339      0.0574
    132  CG        24.1360   17.2720   32.9770 C.ar  339  PHE339     -0.0200
    133  CD1       24.7110   18.2840   33.7440 C.ar  339  PHE339     -0.0042
    134  CD2       24.0250   17.4350   31.6020 C.ar  339  PHE339     -0.0042
    135  CE1       25.1630   19.4520   33.1460 C.ar  339  PHE339     -0.0003
    136  CE2       24.4800   18.6090   30.9830 C.ar  339  PHE339     -0.0003
    137  CZ        25.0500   19.6190   31.7660 C.ar  339  PHE339     -0.0000
    138  N         21.3610   18.3990   34.3390 N.am  340  GLU340     -0.1977
    139  CA        21.0790   19.6330   35.0650 C.3   340  GLU340      0.1602
    140  C         19.9890   19.4400   36.1120 C.2   340  GLU340      0.2287
    141  O         19.9180   20.1970   37.0730 O.2   340  GLU340     -0.2864
    142  CB        20.6450   20.7480   34.0960 C.3   340  GLU340      0.0415
    143  CG        21.7090   21.1600   33.0920 C.3   340  GLU340      0.1163
    144  CD        21.6200   20.4290   31.7600 C.2   340  GLU340      0.3649
    145  OE1       21.1120   19.2690   31.7200 O.co2 340  GLU340     -0.2457
    146  OE2       22.0620   21.0130   30.7180 O.co2 340  GLU340     -0.2457
    147  N         29.4200   20.4200   28.6620 N.3   371  ASP371     -0.1239
    148  CA        28.5550   19.7130   29.5930 C.3   371  ASP371      0.1674
    149  C         29.1790   18.5780   30.4110 C.2   371  ASP371      0.2266
    150  O         28.9850   18.5020   31.6310 O.2   371  ASP371     -0.2867
    151  CB        27.2870   19.2200   28.8830 C.3   371  ASP371      0.1410
    152  CG        26.3630   20.3500   28.4630 C.2   371  ASP371      0.3668
    153  OD1       25.4770   20.0770   27.6430 O.co2 371  ASP371     -0.2456
    154  OD2       26.4990   21.4880   28.9490 O.co2 371  ASP371     -0.2456
@<TRIPOS>BOND
     1    19    20    1
     2    20    21    1
     3    20    23    1
     4    29    30    2
     5    29    28    1
     6    21    27   am
     7    21    22    2
     8    27    28    1
     9    23    24    1
    10    28    31    1
    11    18    17    1
    12    31    32    1
    13    24    26   ar
    14    24    25   ar
    15    17    16    1
    16    12    13    2
    17    12    11    1
    18    14    11    1
    19    14    15    1
    20    32    33    1
    21    16    15    1
    22    47    46    2
    23    11    10    1
    24    46    45    1
    25    33    34    1
    26    57    58    2
    27    57    56    1
    28    10     7   am
    29    35    34    1
    30     8     7    2
    31    45    44    1
    32    45    48    1
    33     7     6    1
    34    48    49    1
    35    56    59    1
    36    56    55    1
    37    43    42    2
    38    59    60    1
    39    42    41    1
    40    62    60    1
    41     6     9    1
    42     6     5    1
    43    49    51   ar
    44    49    50   ar
    45    60    61    1
    46     5     3   am
    47    51    53   ar
    48     3     4    2
    49     3     2    1
    50    50    52   ar
    51    41    40    1
    52     2     1    1
    53    39    38    2
    54    53    54   ar
    55    40    38   am
    56    52    54   ar
    57    38    37    1
    58    36    37    1
    59    81    80    1
    60    78    75    1
    61    78    79    1
    62    75    74    1
    63    75    76    1
    64    80    79    1
    65    82    76   am
    66    82    83    1
    67    85    84    2
    68   105   104    2
    69   153   152   ar
    70    76    77    2
    71    83    84    1
    72    84    86   am
    73   102   108    1
    74   102   103    1
    75   152   151    1
    76   152   154   ar
    77    71    73   ar
    78    71    69   ar
    79    73    72   ar
    80    69    68   ar
    81    72    70   ar
    82   114   113    1
    83   147   148    1
    84    68    70   ar
    85    68    67    1
    86   104   103    1
    87   104   109   am
    88    67    64    1
    89    93    91    1
    90   108   107    1
    91   110   113    1
    92   110   111    1
    93   110   109    1
    94   151   148    1
    95   112   111    2
    96   113   115    1
    97   111   116   am
    98   103   106    1
    99    86    87    1
   100   148   149    1
   101    87    88    1
   102    87    90    1
   103    63    64    1
   104   116   117    1
   105    64    65    1
   106   126   124    1
   107    91    90    1
   108    91    92    1
   109   117   118    1
   110   106   107    1
   111    88    94   am
   112    88    89    2
   113   149   150    2
   114    97    96    2
   115   119   118    2
   116    94    95    1
   117   118   120   am
   118   146   144   ar
   119    96    95    1
   120    66    65    2
   121   136   134   ar
   122   136   137   ar
   123   120   121    1
   124    95    98    1
   125   121   124    1
   126   121   122    1
   127   124   125    1
   128   134   132   ar
   129   145   144   ar
   130   144   143    1
   131   137   135   ar
   132   101    99   ar
   133    98    99    1
   134   127   122   am
   135   127   128    1
   136   122   123    2
   137   132   131    1
   138   132   133   ar
   139   143   142    1
   140   135   133   ar
   141    99   100   ar
   142   131   128    1
   143   128   129    1
   144   142   139    1
   145   138   129   am
   146   138   139    1
   147   129   130    2
   148   139   140    1
   149   140   141    2
