@<TRIPOS>MOLECULE
tmp/1hdsB00.pdb
 209 200 0 0 0
SMALL
GASTEIGER

@<TRIPOS>ATOM
      1  N         24.8360   16.3000   24.7270 N.3    27  LEU27      -0.1301
      2  CA        24.0380   17.0550   23.6000 C.3    27  LEU27       0.1247
      3  C         24.9660   17.8600   22.9160 C.3    27  LEU27       0.2009
      4  O         24.9400   17.9530   21.4300 O.3    27  LEU27      -0.2188
      5  CB        22.8050   17.5510   23.7990 C.3    27  LEU27       0.0217
      6  CG        21.5490   17.7780   23.0790 C.3    27  LEU27       0.0015
      7  CD1       21.3990   18.2330   21.8720 C.3    27  LEU27       0.0000
      8  CD2       20.8470   16.2280   23.0830 C.3    27  LEU27       0.0000
      9  N         27.7930   15.5780   20.6380 N.3    30  LEU30      -0.1298
     10  CA        27.0130   14.8260   19.8380 C.3    30  LEU30       0.1287
     11  C         26.8960   15.5190   18.3590 C.3    30  LEU30       0.2013
     12  O         26.9540   15.3220   17.0660 O.3    30  LEU30      -0.2188
     13  CB        25.5770   14.4220   20.1270 C.3    30  LEU30       0.0437
     14  CG        24.3990   13.5610   19.5420 C.2    30  LEU30      -0.0424
     15  CD1       23.4260   13.9140   18.9190 C.2    30  LEU30      -0.0091
     16  CD2       24.4530   11.9820   19.1030 C.3    30  LEU30       0.0264
     17  N         23.7180   15.0300   12.6550 N.3    37  THR37      -0.1274
     18  CA        22.4540   15.0750   13.7710 C.3    37  THR37       0.1548
     19  C         21.7910   16.5220   13.9010 C.3    37  THR37       0.2036
     20  O         20.8630   17.3890   14.3960 O.3    37  THR37      -0.2187
     21  CB        22.8000   14.5750   14.9230 C.3    37  THR37       0.1721
     22  OG1       24.0470   14.7730   15.1790 O.3    37  THR37      -0.2215
     23  CG2       22.7050   13.0290   15.5180 C.3    37  THR37       0.0371
     24  N         18.4670   17.9070   12.8180 N.3    40  PHE40      -0.1227
     25  CA        17.1070   17.7890   13.7390 C.3    40  PHE40       0.1733
     26  C         17.3120   19.4030   14.4960 C.2    40  PHE40       0.2595
     27  O         16.0620   20.2330   14.7650 O.2    40  PHE40      -0.2718
     28  CB        17.2080   16.4070   14.2580 C.3    40  PHE40       0.0501
     29  CG        16.8480   15.6740   13.0000 C.2    40  PHE40      -0.0466
     30  CD1       17.9950   15.3420   12.2470 C.2    40  PHE40      -0.0345
     31  CD2       16.1440   15.1630   12.2910 C.3    40  PHE40       0.0218
     32  CE1       18.1020   14.6470   11.1250 C.3    40  PHE40       0.0254
     33  CE2       15.6610   14.6460   11.0180 C.3    40  PHE40       0.0047
     34  CZ        17.1420   14.3340   10.2960 C.3    40  PHE40       0.0050
     35  N         18.3850   19.9930   14.5450 N.am   41  PHE41      -0.1976
     36  CA        17.9620   21.4130   15.3030 C.3    41  PHE41       0.1639
     37  C         18.5510   23.0920   14.8100 C.2    41  PHE41       0.2290
     38  O         19.0830   23.4880   15.1460 O.2    41  PHE41      -0.2864
     39  CB        18.4660   21.2040   16.9370 C.3    41  PHE41       0.0560
     40  CG        18.7310   19.9710   17.5750 C.ar   41  PHE41      -0.0200
     41  CD1       19.7750   19.0990   17.0430 C.ar   41  PHE41      -0.0042
     42  CD2       18.3030   19.5460   18.8860 C.ar   41  PHE41      -0.0042
     43  CE1       19.9630   18.2680   17.5240 C.ar   41  PHE41      -0.0003
     44  CE2       18.7380   18.6850   19.3260 C.ar   41  PHE41      -0.0003
     45  CZ        19.3570   17.9520   19.1640 C.ar   41  PHE41      -0.0000
     46  N         15.2630   24.4720   15.4480 N.3    43  HIS43      -0.1297
     47  CA        14.8590   23.7630   16.4510 C.3    43  HIS43       0.1303
     48  C         15.8400   24.8960   17.4120 C.3    43  HIS43       0.2013
     49  O         15.0490   25.2590   18.4230 O.3    43  HIS43      -0.2188
     50  CB        15.1680   22.3830   16.9170 C.3    43  HIS43       0.0641
     51  CG        14.4000   22.3980   18.1430 C.2    43  HIS43       0.0523
     52  ND1       12.7150   22.7820   17.8950 N.2    43  HIS43      -0.2581
     53  CD2       14.3430   21.5830   19.6230 C.3    43  HIS43       0.1315
     54  CE1       11.4710   22.5480   19.3350 C.3    43  HIS43       0.2147
     55  NE2       12.7490   21.7720   20.4160 N.3    43  HIS43      -0.1875
     56  N         17.9960   21.8570   26.0980 N.3    62  HIS62      -0.1301
     57  CA        17.6370   20.4270   25.1770 C.3    62  HIS62       0.1247
     58  C         18.1440   19.4340   26.0590 C.3    62  HIS62       0.2009
     59  O         17.2370   18.5690   26.5020 O.3    62  HIS62      -0.2188
     60  CB        18.2410   20.4340   23.8850 C.3    62  HIS62       0.0233
     61  CG        16.9000   18.6190   23.5740 C.3    62  HIS62       0.1076
     62  ND1       15.8060   18.8160   22.3150 N.3    62  HIS62      -0.1983
     63  CD2       17.2510   17.2870   24.2970 C.3    62  HIS62       0.0918
     64  CE1       15.3600   17.3300   22.5740 C.3    62  HIS62       0.1782
     65  NE2       16.1180   16.6950   23.3800 N.3    62  HIS62      -0.1997
     66  N         17.0760   18.0230   30.1950 N.3    65  ARG65      -0.1231
     67  CA        15.8000   17.0070   29.6600 C.3    65  ARG65       0.1694
     68  C         16.3550   16.3560   28.7160 C.2    65  ARG65       0.2588
     69  O         15.8020   15.0750   29.3490 O.2    65  ARG65      -0.2718
     70  CB        14.5670   17.7420   28.7570 C.3    65  ARG65       0.0321
     71  CG        13.7640   17.6470   27.8930 C.3    65  ARG65       0.0489
     72  CD        13.9410   18.4820   26.6170 C.3    65  ARG65       0.2205
     73  NE        13.3390   19.8270   27.0740 N.pl3  65  ARG65      -0.0865
     74  CZ        12.2990   20.2600   26.2790 C.cat  65  ARG65       0.5346
     75  NH1       11.3200   19.9430   25.3290 N.pl3  65  ARG65       0.1354
     76  NH2       11.4210   21.8720   26.1120 N.pl3  65  ARG65       0.1354
     77  N         17.1530   16.1440   27.6480 N.am   66  VAL66      -0.2033
     78  CA        17.4090   15.0930   26.9510 C.3    66  VAL66       0.1282
     79  C         18.0800   14.1520   27.8960 C.3    66  VAL66       0.2035
     80  O         18.9710   13.1810   27.2560 O.3    66  VAL66      -0.2185
     81  CB        17.7870   15.0280   25.6150 C.3    66  VAL66       0.0241
     82  CG1       18.5990   16.5260   24.9190 C.3    66  VAL66       0.0207
     83  CG2       18.8170   14.1290   24.7980 C.3    66  VAL66       0.0019
     84  N         15.1090   12.0640   31.9730 N.3    69  ALA69      -0.1231
     85  CA        14.5970   11.6290   31.0060 C.3    69  ALA69       0.1697
     86  C         14.8600   10.3370   30.3310 C.2    69  ALA69       0.2633
     87  O         14.4610    9.0900   29.9770 O.2    69  ALA69      -0.2714
     88  CB        14.6410   12.2550   30.3720 C.3    69  ALA69       0.0304
     89  N         16.1020   10.2450   30.4450 N.am   70  PHE70      -0.1711
     90  CA        16.9020    8.7860   30.3030 C.2    70  PHE70       0.1293
     91  C         16.9230    8.1590   31.4490 C.1    70  PHE70       0.1459
     92  O         16.9040    7.4420   32.3600 O.2    70  PHE70      -0.2301
     93  CB        18.1620    8.7340   29.3470 C.3    70  PHE70       0.0765
     94  CG        19.2760    8.2580   29.5410 C.2    70  PHE70      -0.0375
     95  CD1       19.8300    8.6590   30.5550 C.2    70  PHE70      -0.0084
     96  CD2       20.0120    7.6380   28.5460 C.3    70  PHE70       0.0271
     97  CE1       21.0150    8.2590   30.7660 C.2    70  PHE70      -0.0052
     98  CE2       21.0720    6.7880   27.8790 C.3    70  PHE70       0.0304
     99  CZ        21.7360    7.2180   29.5450 C.2    70  PHE70      -0.0258
    100  N          9.5360    5.1680   27.6850 N.3    84  PHE84      -0.1298
    101  CA        10.1290    5.5550   26.3910 C.3    84  PHE84       0.1290
    102  C          9.0810    5.1780   25.5000 C.3    84  PHE84       0.2013
    103  O          8.6510    6.1770   24.9180 O.3    84  PHE84      -0.2188
    104  CB        11.6090    4.6740   26.4830 C.3    84  PHE84       0.0480
    105  CG        12.7160    5.9710   26.8990 C.ar   84  PHE84      -0.0206
    106  CD1       13.2500    4.8540   27.9060 C.ar   84  PHE84      -0.0042
    107  CD2       12.8640    6.7740   26.4650 C.ar   84  PHE84      -0.0042
    108  CE1       14.4100    5.3540   28.6400 C.ar   84  PHE84      -0.0003
    109  CE2       13.9910    7.1440   27.2450 C.ar   84  PHE84      -0.0003
    110  CZ        14.9880    6.7750   28.1920 C.ar   84  PHE84      -0.0000
    111  N          8.1780    8.9090   23.6110 N.3    87  LEU87      -0.1298
    112  CA         9.0890    9.7750   23.0510 C.3    87  LEU87       0.1287
    113  C          9.3390    8.4500   21.9140 C.3    87  LEU87       0.2013
    114  O          9.0250    9.3100   20.8690 O.3    87  LEU87      -0.2188
    115  CB        10.5010   10.1070   23.6990 C.3    87  LEU87       0.0437
    116  CG        10.8810   10.2710   24.7870 C.2    87  LEU87      -0.0424
    117  CD1       10.3220    9.7770   26.5740 C.3    87  LEU87       0.0264
    118  CD2       12.1140   10.3330   25.2540 C.2    87  LEU87      -0.0091
    119  N          7.2790   10.2330   18.7420 N.3    90  LEU90      -0.1231
    120  CA         7.8140   11.5890   18.6520 C.3    90  LEU90       0.1693
    121  C          9.1280   11.4500   17.5790 C.2    90  LEU90       0.2588
    122  O          8.9840   12.0260   16.6800 O.2    90  LEU90      -0.2718
    123  CB         7.7350   12.1040   19.8610 C.3    90  LEU90       0.0284
    124  CG         8.1730   13.5380   19.8800 C.3    90  LEU90       0.0019
    125  CD1        7.6700   14.8860   19.1970 C.3    90  LEU90       0.0001
    126  CD2        8.8980   13.6630   21.2930 C.3    90  LEU90       0.0001
    127  N         10.0930   10.5420   17.9390 N.am   91  HIS91      -0.2029
    128  CA        11.3270   10.1110   17.3500 C.3    91  HIS91       0.1342
    129  C         11.0270    9.5070   15.8020 C.3    91  HIS91       0.2040
    130  O         11.5320   10.2760   14.7080 O.3    91  HIS91      -0.2185
    131  CB        12.2010    9.2300   17.9230 C.3    91  HIS91       0.0718
    132  CG        12.9580   10.1940   18.7650 C.ar   91  HIS91       0.0817
    133  ND1       12.5460   11.0910   19.8090 N.ar   91  HIS91      -0.2268
    134  CD2       14.2510   10.7330   18.8810 C.ar   91  HIS91       0.1154
    135  CE1       13.4750   11.9050   20.5130 C.ar   91  HIS91       0.1986
    136  NE2       14.7500   11.8880   19.8600 N.ar   91  HIS91      -0.2212
    137  N         10.3160   14.1690   13.1830 N.3    95  LEU95      -0.2153
    138  CA        12.0930   14.4180   13.3940 C.3    95  LEU95       0.1216
    139  C         12.4100   13.5690   12.2450 C.3    95  LEU95       0.2007
    140  O         12.8920   13.9420   11.0810 O.3    95  LEU95      -0.2188
    141  CB        11.0350   13.4320   14.6190 C.3    95  LEU95       0.0913
    142  CG        12.4350   14.0020   15.4600 C.3    95  LEU95       0.0175
    143  CD1       12.2920   15.3890   16.4190 C.3    95  LEU95       0.0015
    144  CD2       12.4810   13.2020   16.9090 C.3    95  LEU95       0.0015
    145  N         14.6810   10.2750   13.1460 N.3    97  VAL97      -0.1301
    146  CA        16.1080    9.8660   13.5350 C.3    97  VAL97       0.1246
    147  C         16.1590    8.3130   13.3260 C.3    97  VAL97       0.2009
    148  O         14.8180    7.6630   13.4310 O.3    97  VAL97      -0.2188
    149  CB        16.5830   10.1610   15.1900 C.3    97  VAL97       0.0202
    150  CG1       18.1000   10.6810   15.1670 C.3    97  VAL97       0.0016
    151  CG2       15.4700   11.5020   16.0720 C.3    97  VAL97       0.0016
    152  N         21.2150    6.8260   15.0780 N.3   101  ASN101     -0.1225
    153  CA        21.7420    7.9550   15.8990 C.3   101  ASN101      0.1785
    154  C         21.2540    7.6490   17.6540 C.2   101  ASN101      0.2597
    155  O         22.2650    8.0980   18.2170 O.2   101  ASN101     -0.2718
    156  CB        21.1610    9.2840   15.2350 C.3   101  ASN101      0.1169
    157  CG        21.9070    9.8780   14.0250 C.2   101  ASN101      0.2627
    158  OD1       21.3810   10.4030   13.2680 O.2   101  ASN101     -0.2716
    159  ND2       23.3360    9.6450   14.3390 N.am  101  ASN101     -0.0877
    160  N         20.4320    6.8870   17.8660 N.am  102  PHE102     -0.1980
    161  CA        20.2390    6.5130   19.3650 C.3   102  PHE102      0.1596
    162  C         21.1900    6.1200   20.0230 C.2   102  PHE102      0.2287
    163  O         21.8230    6.5130   21.0410 O.2   102  PHE102     -0.2864
    164  CB        18.7550    5.8950   19.4790 C.3   102  PHE102      0.0300
    165  CG        17.8220    5.9260   19.1760 C.3   102  PHE102      0.0068
    166  CD1       16.9510    7.5680   18.8620 C.3   102  PHE102      0.0258
    167  CD2       16.6930    5.5000   18.6150 C.3   102  PHE102      0.0051
    168  CE1       15.9960    7.8690   18.1620 C.2   102  PHE102     -0.0307
    169  CE2       15.6370    5.7090   17.9110 C.3   102  PHE102      0.0257
    170  CZ        15.3320    7.1250   17.7550 C.2   102  PHE102     -0.0307
    171  N         24.9610    9.1410   20.4390 N.3   105  LEU105     -0.1231
    172  CA        24.2240    9.8700   21.3110 C.3   105  LEU105      0.1693
    173  C         24.5070    8.8740   22.8640 C.2   105  LEU105      0.2592
    174  O         25.3600    9.6050   23.8120 O.2   105  LEU105     -0.2718
    175  CB        22.8660   10.5650   21.3320 C.3   105  LEU105      0.0284
    176  CG        22.3510   11.6520   22.4170 C.3   105  LEU105      0.0019
    177  CD1       22.3910   11.1600   23.8400 C.3   105  LEU105      0.0001
    178  CD2       23.1070   12.6840   22.5410 C.3   105  LEU105      0.0001
    179  N         24.0850    7.4570   23.0880 N.am  106  GLY106     -0.1957
    180  CA        24.3720    6.8900   23.8590 C.3   106  GLY106      0.1869
    181  C         25.9640    6.5200   24.6020 C.2   106  GLY106      0.2309
    182  O         26.2770    6.3580   25.7440 O.2   106  GLY106     -0.2863
    183  N         22.6130    2.0340   27.5630 N.3   133  VAL133     -0.1301
    184  CA        22.3980    2.8260   26.2450 C.3   133  VAL133      0.1246
    185  C         22.1070    1.5890   25.2000 C.3   133  VAL133      0.2009
    186  O         21.3830    1.8200   24.9540 O.3   133  VAL133     -0.2188
    187  CB        23.2760    3.6010   26.3590 C.3   133  VAL133      0.0202
    188  CG1       24.6990    3.3680   26.0360 C.3   133  VAL133      0.0016
    189  CG2       23.2930    5.4530   25.7310 C.3   133  VAL133      0.0016
    190  N         18.1270    1.6410   26.2130 N.3   136  VAL136     -0.1231
    191  CA        17.4930    2.9670   26.1320 C.3   136  VAL136      0.1692
    192  C         17.8900    3.2000   24.3770 C.2   136  VAL136      0.2588
    193  O         16.7960    2.3740   23.9470 O.2   136  VAL136     -0.2718
    194  CB        17.9100    3.9610   26.7710 C.3   136  VAL136      0.0266
    195  CG1       17.5960    5.3320   26.1480 C.3   136  VAL136      0.0020
    196  CG2       17.5840    4.1100   27.9740 C.3   136  VAL136      0.0020
    197  N         18.6810    3.3200   23.6360 N.am  137  ALA137     -0.2033
    198  CA        18.9410    3.0270   21.9670 C.3   137  ALA137      0.1283
    199  C         18.1470    2.1250   21.3460 C.3   137  ALA137      0.2036
    200  O         17.1370    2.5440   20.2490 O.3   137  ALA137     -0.2185
    201  CB        20.1730    2.5160   21.7420 C.3   137  ALA137      0.0262
    202  N         13.8570    3.0110   21.9960 N.3   140  LEU140     -0.1245
    203  CA        13.3290    3.9390   21.5900 C.3   140  LEU140      0.1561
    204  C         12.8960    3.7050   20.1300 C.2   140  LEU140      0.2260
    205  O         12.1760    4.1520   19.2560 O.2   140  LEU140     -0.2867
    206  CB        14.1610    5.3100   21.5280 C.3   140  LEU140      0.0270
    207  CG        14.2850    6.2470   22.2580 C.3   140  LEU140      0.0019
    208  CD1       15.1940    7.3760   21.2720 C.3   140  LEU140      0.0001
    209  CD2       12.7070    7.3230   22.5280 C.3   140  LEU140      0.0001
@<TRIPOS>BOND
     1    34    33    1
     2    34    32    1
     3    33    31    1
     4   140   139    1
     5    32    30    1
     6   139   138    1
     7    30    29    2
     8    31    29    1
     9    17    18    1
    10    24    25    1
    11    29    28    1
    12   145   146    1
    13   137   138    1
    14   137   141    1
    15   158   157    2
    16   147   148    1
    17   147   146    1
    18   138   141    1
    19   146   149    1
    20    25    28    1
    21    25    26    1
    22    18    19    1
    23    18    21    1
    24    19    20    1
    25   157   159   am
    26   157   156    1
    27    26    35   am
    28    26    27    2
    29    35    36    1
    30   141   142    1
    31   130   129    1
    32    37    38    2
    33    37    36    1
    34    21    22    1
    35    21    23    1
    36   152   153    1
    37   150   149    1
    38   149   151    1
    39   156   153    1
    40    36    39    1
    41    46    47    1
    42   142   143    1
    43   142   144    1
    44   129   128    1
    45   153   154    1
    46    47    50    1
    47    47    48    1
    48   122   121    2
    49    50    51    1
    50    39    40    1
    51    41    43   ar
    52    41    40   ar
    53    12    11    1
    54   128   131    1
    55   128   127    1
    56    48    49    1
    57    43    45   ar
    58    40    42   ar
    59   121   127   am
    60   121   120    1
    61   154   160   am
    62   154   155    2
    63   170   169    1
    64   170   168    2
    65   160   161    1
    66    52    51    2
    67    52    54    1
    68   169   167    1
    69   131   132    1
    70    51    53    1
    71   168   166    1
    72    11    10    1
    73   167   165    1
    74   120   119    1
    75   120   123    1
    76   132   134   ar
    77   132   133   ar
    78   166   165    1
    79   134   136   ar
    80    42    44   ar
    81    15    14    2
    82    16    14    1
    83    45    44   ar
    84   165   164    1
    85   125   124    1
    86   205   204    2
    87    54    55    1
    88   161   164    1
    89   161   162    1
    90    14    13    1
    91    53    55    1
    92   133   135   ar
    93    10    13    1
    94    10     9    1
    95   136   135   ar
    96   123   124    1
    97   124   126    1
    98   162   163    2
    99   204   203    1
   100   200   199    1
   101   171   172    1
   102   114   113    1
   103   208   207    1
   104   172   175    1
   105   172   173    1
   106   175   176    1
   107   199   198    1
   108     4     3    1
   109   206   203    1
   110   206   207    1
   111   203   202    1
   112   201   198    1
   113     7     6    1
   114   113   112    1
   115   198   197    1
   116   207   209    1
   117    62    64    1
   118    62    61    1
   119   176   178    1
   120   176   177    1
   121    64    65    1
   122   173   179   am
   123   173   174    2
   124     3     2    1
   125   112   111    1
   126   112   115    1
   127     6     8    1
   128     6     5    1
   129   179   180    1
   130    65    63    1
   131    61    63    1
   132     2     5    1
   133     2     1    1
   134   197   192   am
   135   115   116    1
   136   180   181    1
   137    60    57    1
   138   193   192    2
   139    63    82    1
   140   192   191    1
   141   181   182    2
   142   116   118    2
   143   116   117    1
   144    83    81    1
   145   103   102    1
   146    82    81    1
   147   186   185    1
   148    57    58    1
   149    57    56    1
   150   185   184    1
   151    75    74    1
   152   102   101    1
   153    81    78    1
   154   189   187    1
   155   188   187    1
   156    58    59    1
   157    76    74    1
   158   191   190    1
   159   191   194    1
   160   195   194    1
   161   184   187    1
   162   184   183    1
   163    74    73    2
   164   101   104    1
   165   101   100    1
   166   107   105   ar
   167   107   109   ar
   168   104   105    1
   169    72    73    1
   170    72    71    1
   171   194   196    1
   172   105   106   ar
   173    78    77    1
   174    78    79    1
   175   109   110   ar
   176    80    79    1
   177    77    68   am
   178    98    96    1
   179    98    99    1
   180    71    70    1
   181   106   108   ar
   182   110   108   ar
   183    96    94    1
   184    68    69    2
   185    68    67    1
   186    70    67    1
   187    93    94    1
   188    93    90    1
   189    94    95    2
   190    99    97    2
   191    67    66    1
   192    87    86    2
   193    90    89    1
   194    90    91    2
   195    86    89   am
   196    86    85    1
   197    88    85    1
   198    95    97    1
   199    85    84    1
   200    91    92    2
