@<TRIPOS>MOLECULE
tmp/1hdsD00.pdb
 203 192 0 0 0
SMALL
GASTEIGER

@<TRIPOS>ATOM
      1  N         26.8690  -13.9750    0.7890 N.3    30  LEU30      -0.1301
      2  CA        27.1030  -13.4530    1.9280 C.3    30  LEU30       0.1247
      3  C         28.9060  -13.9120    2.4810 C.3    30  LEU30       0.2009
      4  O         29.9730  -13.2340    2.7870 O.3    30  LEU30      -0.2188
      5  CB        26.7470  -13.6140    3.5070 C.3    30  LEU30       0.0217
      6  CG        26.8010  -13.3610    4.8720 C.3    30  LEU30       0.0015
      7  CD1       26.3340  -11.8650    5.4630 C.3    30  LEU30       0.0000
      8  CD2       26.6290  -14.7230    5.3700 C.3    30  LEU30       0.0000
      9  N         32.5870  -13.0600    7.1130 N.3    37  THR37      -0.1274
     10  CA        31.6900  -14.0430    7.4190 C.3    37  THR37       0.1548
     11  C         32.0160  -15.3460    7.9100 C.3    37  THR37       0.2036
     12  O         31.5710  -16.3550    8.9760 O.3    37  THR37      -0.2187
     13  CB        30.6600  -13.5760    6.5110 C.3    37  THR37       0.1721
     14  OG1       29.8490  -13.4180    7.2210 O.3    37  THR37      -0.2215
     15  CG2       29.8600  -14.2040    5.2660 C.3    37  THR37       0.0371
     16  N         33.8890  -17.8850   11.1490 N.3    40  PHE40      -0.1227
     17  CA        32.7460  -18.5470   11.7500 C.3    40  PHE40       0.1736
     18  C         32.2450  -19.8600   11.2020 C.2    40  PHE40       0.2595
     19  O         32.0920  -20.7330   12.3310 O.2    40  PHE40      -0.2718
     20  CB        31.3550  -17.6990   12.2060 C.3    40  PHE40       0.0547
     21  CG        31.2800  -16.3420   12.6660 C.ar   40  PHE40      -0.0202
     22  CD1       30.9630  -15.4970   11.4970 C.ar   40  PHE40      -0.0042
     23  CD2       31.6750  -16.2390   14.1980 C.ar   40  PHE40      -0.0042
     24  CE1       31.0230  -14.3450   12.0170 C.ar   40  PHE40      -0.0003
     25  CE2       31.8100  -15.2590   14.4060 C.ar   40  PHE40      -0.0003
     26  CZ        31.3620  -13.8930   13.1700 C.ar   40  PHE40      -0.0000
     27  N         31.9930  -19.9110   10.0020 N.am   41  PHE41      -0.1976
     28  CA        31.4900  -21.2080    9.1930 C.3    41  PHE41       0.1639
     29  C         32.5840  -21.8880    9.1610 C.2    41  PHE41       0.2290
     30  O         32.9270  -22.4840    8.3390 O.2    41  PHE41      -0.2864
     31  CB        30.2960  -21.4490    8.1470 C.3    41  PHE41       0.0560
     32  CG        29.5850  -20.1440    8.0350 C.ar   41  PHE41      -0.0200
     33  CD1       30.2910  -18.7440    7.8590 C.ar   41  PHE41      -0.0042
     34  CD2       28.4270  -20.4730    7.8290 C.ar   41  PHE41      -0.0042
     35  CE1       29.7340  -17.4300    7.4280 C.ar   41  PHE41      -0.0003
     36  CE2       27.4330  -19.1110    7.3590 C.ar   41  PHE41      -0.0003
     37  CZ        28.1120  -17.5790    7.2410 C.ar   41  PHE41      -0.0000
     38  N         34.1310  -25.5410   10.3050 N.3    43  HIS43      -0.1244
     39  CA        33.3000  -26.6200   10.2510 C.3    43  HIS43       0.1579
     40  C         33.6750  -27.3690    8.9670 C.2    43  HIS43       0.2261
     41  O         34.0720  -28.4960    8.9030 O.2    43  HIS43      -0.2867
     42  CB        31.6580  -25.8120   10.4250 C.3    43  HIS43       0.0507
     43  CG        30.4310  -25.7270   11.2630 C.3    43  HIS43       0.1203
     44  ND1       29.0770  -25.5050   11.7930 N.pl3  43  HIS43      -0.2179
     45  CD2       29.4180  -25.7980    9.8760 C.3    43  HIS43       0.1486
     46  CE1       27.7050  -25.5060   11.6490 C.2    43  HIS43       0.1763
     47  NE2       27.8060  -25.7100   10.5400 N.2    43  HIS43      -0.2509
     48  N         23.6580  -26.4650    4.6220 N.3    62  HIS62      -0.1245
     49  CA        23.4810  -25.2880    5.4990 C.3    62  HIS62       0.1576
     50  C         22.7610  -24.0930    5.0460 C.2    62  HIS62       0.2261
     51  O         22.2560  -23.4710    5.7780 O.2    62  HIS62      -0.2867
     52  CB        25.0020  -24.5920    5.9320 C.3    62  HIS62       0.0459
     53  CG        24.6300  -24.2350    7.4150 C.3    62  HIS62       0.0936
     54  ND1       24.5890  -25.6510    8.3520 N.3    62  HIS62      -0.1997
     55  CD2       24.1840  -23.0400    7.7520 C.3    62  HIS62       0.1077
     56  CE1       24.1300  -25.0130    9.5570 C.3    62  HIS62       0.1782
     57  NE2       24.0000  -23.3500    9.3470 N.3    62  HIS62      -0.1983
     58  N         18.6210  -25.3740    5.5420 N.2    65  ARG65      -0.1479
     59  CA        18.2630  -25.4060    6.7600 C.2    65  ARG65       0.1356
     60  C         18.3710  -23.8780    7.6050 C.2    65  ARG65       0.2802
     61  O         17.4700  -24.2250    8.5750 O.2    65  ARG65      -0.2670
     62  CB        18.7480  -26.6670    7.6480 C.3    65  ARG65       0.0590
     63  CG        17.7600  -28.3790    7.9410 C.3    65  ARG65       0.0506
     64  CD        16.4730  -28.1420    9.0770 C.3    65  ARG65       0.2205
     65  NE        15.2420  -28.1330    8.4170 N.pl3  65  ARG65      -0.0865
     66  CZ        14.0150  -28.6140    8.9100 C.cat  65  ARG65       0.5346
     67  NH1       13.4860  -27.4110   10.2760 N.pl3  65  ARG65       0.1354
     68  NH2       12.9320  -29.3990    8.7500 N.pl3  65  ARG65       0.1354
     69  N         18.8280  -23.3080    7.0280 N.am   66  VAL66      -0.1997
     70  CA        18.8160  -21.9550    7.4710 C.3    66  VAL66       0.1285
     71  C         17.4450  -21.2470    6.9410 C.3    66  VAL66       0.2036
     72  O         16.5910  -20.2920    7.7260 O.3    66  VAL66      -0.2185
     73  CB        20.1340  -21.1710    6.7590 C.3    66  VAL66       0.0226
     74  CG1       19.9920  -19.5680    6.3530 C.3    66  VAL66       0.0018
     75  CG2       21.1050  -21.4130    7.5010 C.3    66  VAL66       0.0018
     76  N         14.4070  -22.6370    8.3270 N.3    69  ALA69      -0.1231
     77  CA        14.6340  -22.1790    9.5680 C.3    69  ALA69       0.1693
     78  C         13.5870  -20.9080   10.1340 C.2    69  ALA69       0.2587
     79  O         12.7280  -21.2810   10.8860 O.2    69  ALA69      -0.2718
     80  CB        15.8190  -21.6500   10.0240 C.3    69  ALA69       0.0304
     81  N         13.8500  -20.0680    9.0840 N.am   70  PHE70      -0.2060
     82  CA        13.2330  -19.2500    9.2000 C.3    70  PHE70       0.0954
     83  C         11.9690  -19.2520    8.5850 C.3    70  PHE70       0.0234
     84  O         11.7950  -18.6960   10.4730 O.3    70  PHE70       0.0000
     85  CB        14.1220  -18.2550    8.6810 C.3    70  PHE70       0.0220
     86  CG        14.2100  -16.6380    8.4210 C.3    70  PHE70       0.0064
     87  CD1       13.9270  -16.1370    6.8990 C.3    70  PHE70       0.0087
     88  CD2       14.3820  -15.1320    8.3960 C.3    70  PHE70       0.0221
     89  CE1       13.8340  -15.1830    6.4200 C.3    70  PHE70       0.0260
     90  CE2       14.3720  -14.1190    8.3160 C.2    70  PHE70      -0.0310
     91  CZ        13.9930  -14.0310    7.0030 C.2    70  PHE70      -0.0307
     92  N         12.5470  -18.0750   17.1280 N.3    84  PHE84      -0.1285
     93  CA        13.9110  -18.5140   17.2000 C.3    84  PHE84       0.1447
     94  C         14.9870  -18.0380   18.3250 C.3    84  PHE84       0.2025
     95  O         16.2280  -17.8680   18.6490 O.3    84  PHE84      -0.2188
     96  CB        14.0820  -16.8910   16.0600 C.3    84  PHE84       0.0310
     97  CG        14.2390  -17.3990   14.5990 C.ar   84  PHE84      -0.0218
     98  CD1       12.9200  -16.1240   14.4070 C.ar   84  PHE84      -0.0043
     99  CD2       14.7100  -18.1940   13.7650 C.ar   84  PHE84      -0.0043
    100  CE1       12.5610  -16.1070   12.9570 C.ar   84  PHE84      -0.0003
    101  CE2       14.1380  -18.0680   12.3540 C.ar   84  PHE84      -0.0003
    102  CZ        13.4600  -17.2570   12.0800 C.ar   84  PHE84      -0.0000
    103  N         17.6190  -19.9320   18.8830 N.3    87  LEU87      -0.1301
    104  CA        18.4490  -19.8860   18.2330 C.3    87  LEU87       0.1247
    105  C         19.2020  -18.5360   18.5500 C.3    87  LEU87       0.2009
    106  O         20.4990  -18.2700   18.3770 O.3    87  LEU87      -0.2188
    107  CB        17.8380  -19.5720   16.4370 C.3    87  LEU87       0.0217
    108  CG        18.1260  -20.4080   15.5930 C.3    87  LEU87       0.0015
    109  CD1       19.2380  -21.6480   15.6120 C.3    87  LEU87       0.0000
    110  CD2       16.9180  -20.3700   14.5980 C.3    87  LEU87       0.0000
    111  N         22.4370  -19.2550   20.8960 N.3    90  LEU90      -0.1231
    112  CA        23.3090  -20.1590   19.8710 C.3    90  LEU90       0.1693
    113  C         24.1680  -19.4520   19.1480 C.2    90  LEU90       0.2588
    114  O         24.8420  -19.9890   19.0280 O.2    90  LEU90      -0.2718
    115  CB        22.2840  -21.0700   18.9330 C.3    90  LEU90       0.0284
    116  CG        23.0240  -22.0470   17.5600 C.3    90  LEU90       0.0019
    117  CD1       22.1570  -21.2950   16.7590 C.3    90  LEU90       0.0001
    118  CD2       24.4070  -22.5100   17.6500 C.3    90  LEU90       0.0001
    119  N         23.4930  -18.0800   18.7480 N.am   91  HIS91      -0.2029
    120  CA        24.2780  -16.9800   17.8010 C.3    91  HIS91       0.1342
    121  C         24.9670  -16.2870   18.8690 C.3    91  HIS91       0.2040
    122  O         25.9260  -16.4480   18.1270 O.3    91  HIS91      -0.2185
    123  CB        23.2890  -16.2570   16.9400 C.3    91  HIS91       0.0718
    124  CG        23.0320  -17.1890   15.7770 C.ar   91  HIS91       0.0817
    125  ND1       22.5320  -18.2910   15.8400 N.ar   91  HIS91      -0.2268
    126  CD2       23.0490  -16.9150   14.5200 C.ar   91  HIS91       0.1154
    127  CE1       22.4020  -18.7100   14.7200 C.ar   91  HIS91       0.1986
    128  NE2       22.7610  -17.8380   13.8840 N.ar   91  HIS91      -0.2212
    129  N         26.8990  -19.6000   21.2440 N.2    94  LYS94      -0.1479
    130  CA        27.7940  -20.0800   20.4930 C.2    94  LYS94       0.1352
    131  C         28.6190  -19.5210   19.4400 C.2    94  LYS94       0.2802
    132  O         29.7750  -19.5720   20.2250 O.2    94  LYS94      -0.2670
    133  CB        27.6830  -21.4990   20.2690 C.3    94  LYS94       0.0525
    134  CG        27.5660  -21.7770   18.6240 C.3    94  LYS94       0.0080
    135  CD        29.0440  -21.6380   17.7920 C.3    94  LYS94       0.0209
    136  CE        29.7430  -23.4180   17.5130 C.3    94  LYS94       0.1093
    137  NZ        28.5900  -24.5530   17.6170 N.3    94  LYS94      -0.1314
    138  N         28.4350  -19.2280   18.5860 N.am   95  LEU95      -0.1997
    139  CA        29.4840  -18.6410   18.2720 C.3    95  LEU95       0.1286
    140  C         29.6350  -17.1620   18.6060 C.3    95  LEU95       0.2036
    141  O         30.9500  -16.3570   18.7520 O.3    95  LEU95      -0.2185
    142  CB        29.2210  -18.2770   16.8670 C.3    95  LEU95       0.0262
    143  CG        27.2100  -18.4490   16.4090 C.3    95  LEU95       0.0000
    144  CD1       27.7130  -17.8770   14.4050 C.3    95  LEU95       0.0000
    145  CD2       27.0860  -19.9630   16.5180 C.3    95  LEU95       0.0000
    146  N         27.8960  -13.6310   17.6630 N.3    97  VAL97      -0.1257
    147  CA        27.8720  -13.1700   16.3960 C.3    97  VAL97       0.1430
    148  C         27.5940  -11.7360   16.2840 C.3    97  VAL97       0.2051
    149  O         26.7250  -11.8470   16.8800 O.3    97  VAL97      -0.2184
    150  CB        27.5930  -13.9900   15.4010 C.2    97  VAL97      -0.0242
    151  CG1       27.7360  -13.5880   13.7370 C.3    97  VAL97       0.0279
    152  CG2       27.7830  -15.1520   15.3010 C.2    97  VAL97      -0.0076
    153  N         25.4480   -8.5530   11.7940 N.3   101  ASN101     -0.1225
    154  CA        25.2860   -9.7740   10.6540 C.3   101  ASN101      0.1784
    155  C         24.2260  -10.2940   10.0710 C.2   101  ASN101      0.2593
    156  O         24.1500  -10.4890    8.9270 O.2   101  ASN101     -0.2718
    157  CB        26.4880  -10.8670   10.3020 C.3   101  ASN101      0.1169
    158  CG        27.7940  -10.0490   10.8620 C.2   101  ASN101      0.2627
    159  OD1       28.4140  -10.3140   12.3360 O.2   101  ASN101     -0.2716
    160  ND2       28.2660   -9.1530   10.1350 N.am  101  ASN101     -0.0877
    161  N         23.4040  -10.0030   11.0440 N.am  102  PHE102     -0.2029
    162  CA        21.5760  -10.5120   11.1270 C.3   102  PHE102      0.1325
    163  C         21.4170   -9.5380   10.0400 C.3   102  PHE102      0.2039
    164  O         20.6380  -10.4740    9.3540 O.3   102  PHE102     -0.2185
    165  CB        21.4260  -10.7410   12.4440 C.3   102  PHE102      0.0507
    166  CG        21.9280  -11.8350   13.1750 C.ar  102  PHE102     -0.0204
    167  CD1       22.7570  -13.1160   13.1030 C.ar  102  PHE102     -0.0042
    168  CD2       22.1520  -11.4900   14.6440 C.ar  102  PHE102     -0.0042
    169  CE1       23.3630  -13.8430   13.7590 C.ar  102  PHE102     -0.0003
    170  CE2       22.8900  -12.3380   15.5130 C.ar  102  PHE102     -0.0003
    171  CZ        23.3890  -13.3660   14.9410 C.ar  102  PHE102     -0.0000
    172  N         22.7300  -10.8450    6.0370 N.3   105  LEU105     -0.1231
    173  CA        22.1930  -12.1780    5.4490 C.3   105  LEU105      0.1693
    174  C         20.7770  -11.6590    5.4880 C.2   105  LEU105      0.2592
    175  O         20.1640  -12.1010    4.2050 O.2   105  LEU105     -0.2718
    176  CB        22.1890  -13.5710    6.3020 C.3   105  LEU105      0.0284
    177  CG        22.0540  -14.4560    5.2640 C.3   105  LEU105      0.0019
    178  CD1       22.8710  -15.3300    6.5570 C.3   105  LEU105      0.0001
    179  CD2       21.4490  -15.1900    5.0210 C.3   105  LEU105      0.0001
    180  N         19.8110  -10.8100    5.9610 N.am  106  GLY106     -0.1957
    181  CA        18.5770  -10.7960    5.4490 C.3   106  GLY106      0.1869
    182  C         18.4440  -10.1530    4.0570 C.2   106  GLY106      0.2309
    183  O         17.6890  -10.3810    3.2340 O.2   106  GLY106     -0.2863
    184  N         13.3450  -10.5690   12.0080 N.3   136  VAL136     -0.1231
    185  CA        13.9330  -11.7190   12.1050 C.3   136  VAL136      0.1678
    186  C         15.4990  -11.2550   12.5660 C.2   136  VAL136      0.2449
    187  O         15.9900  -12.3270   13.6010 O.2   136  VAL136     -0.2733
    188  CB        14.1440  -12.9150   11.3290 C.3   136  VAL136      0.0265
    189  CG1       14.7140  -14.3270   11.4740 C.3   136  VAL136      0.0020
    190  CG2       12.6600  -13.3640   11.1710 C.3   136  VAL136      0.0020
    191  N         16.5180  -10.1660   12.3370 N.am  137  ALA137     -0.2500
    192  CA        17.5790  -10.9600   13.0100 C.3   137  ALA137      0.1275
    193  C         17.8180   -9.7500   13.6640 C.3   137  ALA137      0.2484
    194  O         18.5260   -9.0290   13.6140 O.3   137  ALA137     -0.1988
    195  CB        18.2800  -11.8420   12.0510 C.3   137  ALA137      0.0262
    196  N         16.7770  -12.1160   16.7340 N.3   140  LEU140     -0.1301
    197  CA        18.1560  -12.6590   16.7280 C.3   140  LEU140      0.1247
    198  C         18.9050  -11.7690   17.9340 C.3   140  LEU140      0.2009
    199  O         19.1870  -12.5090   18.5470 O.3   140  LEU140     -0.2188
    200  CB        18.8850  -13.3220   15.9080 C.3   140  LEU140      0.0217
    201  CG        19.0800  -14.7310   15.3540 C.3   140  LEU140      0.0015
    202  CD1       18.7430  -14.0900   13.6570 C.3   140  LEU140      0.0000
    203  CD2       19.8400  -15.6590   14.9860 C.3   140  LEU140      0.0000
@<TRIPOS>BOND
     1     1     2    1
     2     2     3    1
     3     2     5    1
     4     3     4    1
     5   183   182    2
     6     5     6    1
     7   182   181    1
     8   175   174    2
     9    48    49    1
    10     6     8    1
    11     6     7    1
    12   179   177    1
    13    50    49    1
    14    50    51    2
    15   177   176    1
    16   177   178    1
    17    15    13    1
    18   181   180    1
    19   173   174    1
    20   173   172    1
    21   173   176    1
    22   174   180   am
    23    49    52    1
    24    58    59    2
    25    52    53    1
    26    74    73    1
    27    89    87    1
    28    89    91    1
    29    13    14    1
    30    13    10    1
    31    73    70    1
    32    73    75    1
    33    59    60    1
    34    59    62    1
    35    87    88    1
    36    87    86    1
    37    71    70    1
    38    71    72    1
    39    91    90    2
    40    69    70    1
    41    69    60   am
    42     9    10    1
    43    37    36   ar
    44    37    35   ar
    45    36    34   ar
    46    53    55    1
    47    53    54    1
    48    10    11    1
    49    35    33   ar
    50    60    61    2
    51    55    57    1
    52    34    32   ar
    53    33    32   ar
    54    11    12    1
    55    63    64    1
    56    32    31    1
    57    31    28    1
    58    90    88    1
    59    76    77    1
    60    30    29    2
    61    54    56    1
    62    88    86    1
    63    65    66    2
    64    65    64    1
    65    86    85    1
    66    83    82    1
    67    85    82    1
    68    68    66    1
    69    41    40    2
    70    66    67    1
    71   156   155    2
    72    40    39    1
    73    81    82    1
    74    81    78   am
    75    29    28    1
    76    28    27    1
    77    57    56    1
    78   164   163    1
    79    77    80    1
    80    77    78    1
    81    45    47    1
    82    45    43    1
    83    27    18   am
    84   163   162    1
    85   155   154    1
    86   155   161   am
    87    78    79    2
    88   160   158   am
    89    39    38    1
    90    39    42    1
    91   157   154    1
    92   157   158    1
    93    42    43    1
    94    47    46    2
    95   154   153    1
    96   158   159    2
    97   161   162    1
    98   162   165    1
    99    16    17    1
   100   190   188    1
   101    18    17    1
   102    18    19    2
   103    43    44    1
   104   188   189    1
   105   188   185    1
   106    22    24   ar
   107    22    21   ar
   108    46    44    1
   109    17    20    1
   110   184   185    1
   111    24    26   ar
   112   195   192    1
   113   102   101   ar
   114   102   100   ar
   115   185   186    1
   116    20    21    1
   117   191   186   am
   118   191   192    1
   119   191   193    1
   120   101    99   ar
   121   165   166    1
   122   186   187    2
   123    21    23   ar
   124   100    98   ar
   125   192   193    1
   126   167   166   ar
   127   167   169   ar
   128    26    25   ar
   129   166   168   ar
   130   194   193    1
   131   202   201    1
   132   151   150    1
   133   169   171   ar
   134    99    97   ar
   135   128   126   ar
   136   128   127   ar
   137    23    25   ar
   138    98    97   ar
   139   126   124   ar
   140   110   108    1
   141    97    96    1
   142   168   170   ar
   143   127   125   ar
   144   171   170   ar
   145   203   201    1
   146   152   150    2
   147   201   200    1
   148   150   147    1
   149   108   109    1
   150   108   107    1
   151   124   125   ar
   152   124   123    1
   153   200   197    1
   154   148   147    1
   155   148   149    1
   156   147   146    1
   157   143   145    1
   158   107   104    1
   159   197   196    1
   160   197   198    1
   161   117   116    1
   162   142   139    1
   163   123   120    1
   164    92    93    1
   165    93    94    1
   166   136   137    1
   167   136   135    1
   168   116   118    1
   169   116   115    1
   170   135   134    1
   171   120   119    1
   172   120   121    1
   173   198   199    1
   174   122   121    1
   175   104   105    1
   176   104   103    1
   177   139   138    1
   178   139   140    1
   179    94    95    1
   180   106   105    1
   181   138   131   am
   182   140   141    1
   183   134   133    1
   184   119   113   am
   185   115   112    1
   186   114   113    2
   187   113   112    1
   188   131   132    2
   189   131   130    1
   190   112   111    1
   191   133   130    1
   192   130   129    2
