@<TRIPOS>MOLECULE
tmp/1hdsC00.pdb
 210 194 0 0 0
SMALL
GASTEIGER

@<TRIPOS>ATOM
      1  N         14.3600    2.3390   -1.9600 N.3    32  MET32      -0.1301
      2  CA        14.3110    2.7960   -0.4800 C.3    32  MET32       0.1256
      3  C         13.1050    3.7480    0.1540 C.3    32  MET32       0.2010
      4  O         13.4510    3.7000    1.1170 O.3    32  MET32      -0.2188
      5  CB        15.8180    3.7030   -0.4080 C.3    32  MET32       0.0333
      6  CG        16.4020    4.7080    0.0890 C.3    32  MET32       0.0592
      7  SD        17.7280    5.6560   -0.2710 S.3    32  MET32      -0.1393
      8  CE        17.5790    6.7860   -1.6070 C.3    32  MET32       0.0692
      9  N         14.3420    8.2980    4.9570 N.3    39  THR39      -0.1274
     10  CA        14.9840    8.7630    4.1060 C.3    39  THR39       0.1548
     11  C         14.2340    9.6950    3.0450 C.3    39  THR39       0.2036
     12  O         14.9470   10.5010    2.5190 O.3    39  THR39      -0.2187
     13  CB        15.6100    7.4700    3.0910 C.3    39  THR39       0.1721
     14  OG1       16.8270    7.8660    2.6040 O.3    39  THR39      -0.2215
     15  CG2       15.0030    6.5190    2.2440 C.3    39  THR39       0.0371
     16  N         14.5870   13.7050    2.9580 N.3    42  TYR42      -0.1230
     17  CA        15.6570   14.2730    2.1430 C.3    42  TYR42       0.1700
     18  C         14.5470   14.5280    1.0030 C.2    42  TYR42       0.2592
     19  O         14.7690   15.8040    0.5020 O.2    42  TYR42      -0.2718
     20  CB        16.5360   12.8260    1.8120 C.3    42  TYR42       0.0371
     21  CG        17.5910   12.7960    3.0680 C.3    42  TYR42       0.0461
     22  CD1       17.1160   11.9390    4.1220 C.2    42  TYR42      -0.0188
     23  CD2       18.5540   13.6990    3.3100 C.2    42  TYR42      -0.0188
     24  CE1       17.7130   11.9490    5.1610 C.2    42  TYR42       0.0378
     25  CE2       18.9490   13.6240    4.5450 C.2    42  TYR42       0.0378
     26  CZ        18.8730   12.9520    5.7380 C.2    42  TYR42       0.1951
     27  OH        19.5170   12.9130    6.7150 O.2    42  TYR42      -0.2866
     28  N         13.5560   14.3880    0.5690 N.am   43  PHE43      -0.1976
     29  CA        12.9440   14.9150   -0.3300 C.3    43  PHE43       0.1639
     30  C         11.4990   15.4710   -0.4310 C.2    43  PHE43       0.2290
     31  O         10.8000   15.0210   -1.2620 O.2    43  PHE43      -0.2864
     32  CB        13.1160   13.7770   -1.7480 C.3    43  PHE43       0.0560
     33  CG        14.5200   13.3900   -2.3230 C.ar   43  PHE43      -0.0200
     34  CD1       15.4350   12.3080   -0.9650 C.ar   43  PHE43      -0.0042
     35  CD2       15.2680   13.7090   -3.4180 C.ar   43  PHE43      -0.0042
     36  CE1       16.5790   11.8650   -1.3780 C.ar   43  PHE43      -0.0003
     37  CE2       16.5770   13.2700   -3.3290 C.ar   43  PHE43      -0.0003
     38  CZ        16.9040   12.3930   -2.3730 C.ar   43  PHE43      -0.0000
     39  N         11.0800   19.3840   -1.6350 N.3    45  HIS45      -0.1226
     40  CA        10.1170   19.3730   -3.1690 C.3    45  HIS45       0.1752
     41  C          9.3250   18.7610   -3.7930 C.2    45  HIS45       0.2592
     42  O          8.0710   19.0310   -4.4690 O.2    45  HIS45      -0.2718
     43  CB        11.6990   19.5440   -4.0300 C.3    45  HIS45       0.0759
     44  CG        12.8050   18.6340   -3.6730 C.ar   45  HIS45       0.0818
     45  ND1       14.3680   18.6600   -4.0630 N.ar   45  HIS45      -0.2268
     46  CD2       12.4940   17.4000   -3.0510 C.ar   45  HIS45       0.1154
     47  CE1       15.0710   17.4740   -3.7080 C.ar   45  HIS45       0.1986
     48  NE2       14.1710   16.8080   -3.0410 N.ar   45  HIS45      -0.2212
     49  N          9.3280   17.2420   -4.1990 N.am   46  PHE46      -0.2033
     50  CA         8.5840   16.0560   -4.9040 C.3    46  PHE46       0.1283
     51  C          7.7740   15.0680   -4.1560 C.3    46  PHE46       0.2036
     52  O          7.3640   14.5360   -3.3770 O.3    46  PHE46      -0.2185
     53  CB         9.5380   14.7040   -5.2490 C.3    46  PHE46       0.0262
     54  CG        11.3270   15.6250   -5.5810 C.3    46  PHE46       0.0047
     55  CD1       12.1290   15.1560   -4.4690 C.3    46  PHE46       0.0260
     56  CD2       11.4600   16.4390   -6.6340 C.3    46  PHE46       0.0003
     57  CE1       13.2690   16.1570   -5.2850 C.2    46  PHE46      -0.0261
     58  CE2       12.0750   17.3170   -7.5530 C.3    46  PHE46       0.0000
     59  CZ        13.5420   16.9310   -6.2360 C.2    46  PHE46      -0.0049
     60  N         15.4720   13.0200  -11.0510 N.3    58  HIS58      -0.1301
     61  CA        16.6860   12.6240  -10.0460 C.3    58  HIS58       0.1261
     62  C         17.3680   11.0680  -10.2290 C.3    58  HIS58       0.2010
     63  O         18.3010   11.1020  -10.1200 O.3    58  HIS58      -0.2188
     64  CB        16.7440   13.1710   -8.4230 C.3    58  HIS58       0.0406
     65  CG        17.4620   13.1270   -7.5450 C.3    58  HIS58       0.0933
     66  ND1       18.1650   14.1880   -6.9530 N.3    58  HIS58      -0.1997
     67  CD2       17.1800   12.1050   -6.4190 C.3    58  HIS58       0.1077
     68  CE1       18.5820   13.6510   -5.7370 C.3    58  HIS58       0.1782
     69  NE2       18.0740   12.6730   -5.5330 N.3    58  HIS58      -0.1983
     70  N         20.8450   11.7310  -12.7360 N.3    61  LYS61      -0.1210
     71  CA        21.5040   12.6670  -11.8030 C.3    61  LYS61       0.1956
     72  C         22.0360   11.4010  -10.8930 C.2    61  LYS61       0.2608
     73  O         23.4000   11.3760  -11.3900 O.2    61  LYS61      -0.2717
     74  CB        21.1370   14.3930  -10.8690 C.2    61  LYS61      -0.0049
     75  CG        20.5050   14.8660  -11.5740 C.2    61  LYS61      -0.0261
     76  CD        21.1300   15.2200  -13.1760 C.3    61  LYS61       0.0260
     77  CE        21.1240   16.5030  -14.6060 C.3    61  LYS61       0.0050
     78  NZ        20.8990   18.4130  -13.9590 N.3    61  LYS61       0.0000
     79  N         21.7460   10.7150  -10.0790 N.am   62  VAL62      -0.2032
     80  CA        22.2750    9.5010   -9.2480 C.3    62  VAL62       0.1282
     81  C         22.8000    8.7700  -10.2030 C.3    62  VAL62       0.2035
     82  O         23.8450    8.9010  -10.1760 O.3    62  VAL62      -0.2185
     83  CB        21.3310    9.1110   -8.2360 C.3    62  VAL62       0.0226
     84  CG1       21.1380    7.7210   -7.2480 C.3    62  VAL62       0.0018
     85  CG2       20.7550   10.0850   -7.4440 C.3    62  VAL62       0.0018
     86  N         26.3310   10.5140  -12.1650 N.3    65  ALA65      -0.1231
     87  CA        27.3770   10.6820  -11.0120 C.3    65  ALA65       0.1694
     88  C         27.7940    9.3670  -11.1630 C.2    65  ALA65       0.2591
     89  O         29.2230    9.5260  -11.1120 O.2    65  ALA65      -0.2718
     90  CB        27.0020   11.2100   -9.7740 C.3    65  ALA65       0.0304
     91  N         27.2090    8.1830  -11.2320 N.am   66  LEU66      -0.1980
     92  CA        27.8830    6.9610  -11.1340 C.3    66  LEU66       0.1596
     93  C         28.5450    6.4990  -12.2420 C.2    66  LEU66       0.2287
     94  O         29.4940    5.6670  -12.2450 O.2    66  LEU66      -0.2864
     95  CB        27.1410    5.7360  -10.1850 C.3    66  LEU66       0.0297
     96  CG        26.5010    5.0050   -9.5240 C.3    66  LEU66       0.0022
     97  CD1       26.9780    5.5300   -8.1720 C.3    66  LEU66       0.0001
     98  CD2       24.6940    4.9360   -9.6470 C.3    66  LEU66       0.0001
     99  N         30.5030   16.6960   -5.7320 N.3    83  LEU83      -0.1301
    100  CA        29.2890   16.0130   -5.3340 C.3    83  LEU83       0.1247
    101  C         28.5000   16.0260   -4.0970 C.3    83  LEU83       0.2009
    102  O         27.4740   16.9700   -4.3730 O.3    83  LEU83      -0.2188
    103  CB        29.1510   14.4410   -6.1830 C.3    83  LEU83       0.0217
    104  CG        27.7640   14.1280   -6.3130 C.3    83  LEU83       0.0015
    105  CD1       26.4970   14.7720   -6.7180 C.3    83  LEU83       0.0000
    106  CD2       28.0280   12.5980   -7.1870 C.3    83  LEU83       0.0000
    107  N         27.8320   19.1790   -1.1570 N.3    86  LEU86      -0.1210
    108  CA        26.3910   19.3130   -0.7970 C.3    86  LEU86       0.1956
    109  C         25.6800   18.2490   -0.2170 C.2    86  LEU86       0.2608
    110  O         24.7790   18.1170    0.5990 O.2    86  LEU86      -0.2717
    111  CB        25.0060   19.3310   -2.3730 C.3    86  LEU86       0.0000
    112  CG        24.6210   18.1250   -3.1610 C.3    86  LEU86       0.0000
    113  CD1       22.8870   17.9640   -3.2970 C.3    86  LEU86       0.0000
    114  CD2       24.6200   18.0550   -4.9110 C.3    86  LEU86       0.0000
    115  N         25.9980   16.8160   -0.4070 N.am   87  HIS87      -0.2028
    116  CA        25.1740   15.7330    0.3680 C.3    87  HIS87       0.1342
    117  C         25.8900   15.8540    1.2950 C.3    87  HIS87       0.2040
    118  O         24.6640   15.9480    1.9740 O.3    87  HIS87      -0.2185
    119  CB        25.0830   14.2100   -0.1930 C.3    87  HIS87       0.0718
    120  CG        24.7840   13.8170   -1.1320 C.ar   87  HIS87       0.0817
    121  ND1       25.9620   13.9680   -2.3350 N.ar   87  HIS87      -0.2268
    122  CD2       23.7670   13.5910   -1.6200 C.ar   87  HIS87       0.1154
    123  CE1       25.1440   13.5410   -3.2530 C.ar   87  HIS87       0.1986
    124  NE2       23.6640   13.4090   -2.7780 N.ar   87  HIS87      -0.2212
    125  N         23.5950   19.1660    2.2070 N.3    91  LEU91      -0.1301
    126  CA        22.1470   18.4760    2.7300 C.3    91  LEU91       0.1247
    127  C         22.3360   18.0900    4.1730 C.3    91  LEU91       0.2009
    128  O         21.2100   17.9410    5.0430 O.3    91  LEU91      -0.2188
    129  CB        22.1000   17.4310    1.9910 C.3    91  LEU91       0.0217
    130  CG        21.8250   17.9400    0.3360 C.3    91  LEU91       0.0015
    131  CD1       22.3490   16.4060   -0.4170 C.3    91  LEU91       0.0000
    132  CD2       20.6690   18.5970   -0.3300 C.3    91  LEU91       0.0000
    133  N         23.0770   14.6290    4.8550 N.3    93  VAL93      -0.1285
    134  CA        22.7610   13.0790    4.6480 C.3    93  VAL93       0.1447
    135  C         23.5910   12.3420    5.5550 C.3    93  VAL93       0.2025
    136  O         25.1950   12.3350    5.7240 O.3    93  VAL93      -0.2188
    137  CB        23.0140   12.8350    2.6780 C.2    93  VAL93      -0.0258
    138  CG1       22.1640   11.3930    2.5560 C.3    93  VAL93       0.0307
    139  CG2       22.7420   13.6980    1.8110 C.2    93  VAL93      -0.0049
    140  N         22.4980    5.9650    5.7070 N.3    97  ASN97      -0.1225
    141  CA        21.7110    6.1780    4.6690 C.3    97  ASN97       0.1785
    142  C         22.1710    5.7810    3.0120 C.2    97  ASN97       0.2597
    143  O         21.5540    5.3270    2.0130 O.2    97  ASN97      -0.2718
    144  CB        21.0880    7.6580    4.2680 C.3    97  ASN97       0.1169
    145  CG        20.0890    7.9350    5.2420 C.2    97  ASN97       0.2627
    146  OD1       19.7760    8.9080    5.0880 O.2    97  ASN97      -0.2716
    147  ND2       19.4090    7.1490    5.7550 N.am   97  ASN97      -0.0877
    148  N         23.6020    6.0000    3.2750 N.am   98  PHE98      -0.1976
    149  CA        24.5020    5.6060    2.0010 C.3    98  PHE98       0.1639
    150  C         24.2690    4.2460    1.0880 C.2    98  PHE98       0.2290
    151  O         24.1320    3.9010    0.4010 O.2    98  PHE98      -0.2864
    152  CB        25.6490    6.1240    2.5720 C.3    98  PHE98       0.0560
    153  CG        25.5210    7.5750    2.1120 C.ar   98  PHE98      -0.0200
    154  CD1       25.5140    8.3290    0.4910 C.ar   98  PHE98      -0.0042
    155  CD2       25.8530    8.8200    2.9960 C.ar   98  PHE98      -0.0042
    156  CE1       25.5810    9.6930    0.6800 C.ar   98  PHE98      -0.0003
    157  CE2       25.9600   10.0580    2.1800 C.ar   98  PHE98      -0.0003
    158  CZ        25.7360   10.3700    1.1680 C.ar   98  PHE98      -0.0000
    159  N         20.8150    3.4960    0.1030 N.3   101  LEU101     -0.1227
    160  CA        20.8620    3.2820   -1.5310 C.3   101  LEU101      0.1733
    161  C         21.6420    2.1130   -2.2940 C.2   101  LEU101      0.2596
    162  O         21.1100    1.4550   -3.5550 O.2   101  LEU101     -0.2718
    163  CB        20.7240    4.9830   -1.9990 C.3   101  LEU101      0.0504
    164  CG        20.2450    5.5750   -3.0400 C.2   101  LEU101     -0.0420
    165  CD1       21.3360    6.6240   -3.3500 C.3   101  LEU101      0.0264
    166  CD2       19.5670    4.9160   -3.9370 C.2   101  LEU101     -0.0091
    167  N         22.6860    1.8080   -2.0190 N.am  102  SER102     -0.1952
    168  CA        23.6690    0.9020   -2.0250 C.3   102  SER102      0.1924
    169  C         22.7700   -0.3610   -2.3440 C.2   102  SER102      0.2314
    170  O         22.4490   -0.6110   -3.3750 O.2   102  SER102     -0.2863
    171  CB        24.7790    0.8040   -1.3440 C.3   102  SER102      0.2116
    172  OG        24.9680    2.2480   -1.3310 O.3   102  SER102     -0.2180
    173  N         19.8640   -0.0480   -5.1860 N.3   105  LEU105     -0.1301
    174  CA        20.5600   -0.0110   -6.4580 C.3   105  LEU105      0.1247
    175  C         21.2720   -1.5000   -6.4280 C.3   105  LEU105      0.2009
    176  O         20.9840   -1.8750   -7.7440 O.3   105  LEU105     -0.2188
    177  CB        21.3990    1.3390   -6.1800 C.3   105  LEU105      0.0217
    178  CG        22.5370    1.3530   -6.9910 C.3   105  LEU105      0.0015
    179  CD1       22.7390    1.1690   -8.8620 C.3   105  LEU105      0.0000
    180  CD2       23.0710    2.9590   -6.5990 C.3   105  LEU105      0.0000
    181  N         30.2440    0.9490   -4.2500 N.3   129  LEU129     -0.1301
    182  CA        29.2580    1.6120   -3.6500 C.3   129  LEU129      0.1247
    183  C         29.8060    1.4190   -2.3360 C.3   129  LEU129      0.2009
    184  O         30.1020    2.4300   -2.0950 O.3   129  LEU129     -0.2188
    185  CB        27.8660    1.4660   -3.9910 C.3   129  LEU129      0.0217
    186  CG        27.2360    0.5770   -5.5160 C.3   129  LEU129      0.0015
    187  CD1       25.9800    0.0180   -6.2240 C.3   129  LEU129      0.0000
    188  CD2       26.9890    1.7460   -6.3920 C.3   129  LEU129      0.0000
    189  N         31.9910    4.9370   -3.2100 N.3   132  ASP132     -0.1225
    190  CA        31.3460    6.0690   -3.7960 C.3   132  ASP132      0.1805
    191  C         30.7790    6.7730   -2.4760 C.2   132  ASP132      0.2595
    192  O         30.3560    8.0660   -2.0150 O.2   132  ASP132     -0.2718
    193  CB        30.6840    5.4020   -5.1110 C.3   132  ASP132      0.1424
    194  CG        29.8680    6.2490   -5.1360 C.2   132  ASP132      0.3668
    195  OD1       28.3790    5.9810   -4.5370 O.co2 132  ASP132     -0.2456
    196  OD2       29.9600    7.3360   -5.7850 O.co2 132  ASP132     -0.2456
    197  N         30.4140    6.1480   -1.6540 N.am  133  SER133     -0.2005
    198  CA        29.8630    5.8610   -0.7300 C.3   133  SER133      0.1610
    199  C         30.9670    6.7180    0.3580 C.3   133  SER133      0.2063
    200  O         30.6030    7.8160    0.4610 O.3   133  SER133     -0.2184
    201  CB        29.2220    4.3060   -0.2780 C.3   133  SER133      0.2063
    202  OG        28.3220    3.7270   -1.0040 O.3   133  SER133     -0.2184
    203  N         31.5500   10.3410   -0.5090 N.3   136  LEU136     -0.1301
    204  CA        30.2510   11.2470   -0.3960 C.3   136  LEU136      0.1247
    205  C         30.2310   11.5820    0.9940 C.3   136  LEU136      0.2009
    206  O         29.7230   12.8300    1.2780 O.3   136  LEU136     -0.2188
    207  CB        28.8160   10.4900   -1.1250 C.3   136  LEU136      0.0217
    208  CG        28.4290   10.5750   -2.6340 C.3   136  LEU136      0.0015
    209  CD1       27.8370   11.4830   -3.2210 C.3   136  LEU136      0.0000
    210  CD2       29.6750   10.4890   -3.3420 C.3   136  LEU136      0.0000
@<TRIPOS>BOND
     1    77    76    1
     2    76    75    1
     3    70    71    1
     4    94    93    2
     5    93    92    1
     6    86    87    1
     7    71    72    1
     8    75    74    2
     9    73    72    2
    10    91    88   am
    11    91    92    1
    12    88    89    2
    13    88    87    1
    14    92    95    1
    15    60    61    1
    16    87    90    1
    17    72    79   am
    18    62    63    1
    19    62    61    1
    20    81    82    1
    21    81    80    1
    22    95    96    1
    23    79    80    1
    24    61    64    1
    25    98    96    1
    26    96    97    1
    27    80    83    1
    28   179   178    1
    29    64    65    1
    30    83    85    1
    31    83    84    1
    32   176   175    1
    33    58    56    1
    34    65    66    1
    35    65    67    1
    36   106   104    1
    37   178   180    1
    38   178   177    1
    39    66    68    1
    40   105   104    1
    41    56    54    1
    42   174   175    1
    43   174   177    1
    44   174   173    1
    45    67    69    1
    46   188   186    1
    47   104   103    1
    48    59    57    2
    49   187   186    1
    50   103   100    1
    51   196   194   ar
    52    68    69    1
    53    99   100    1
    54    54    55    1
    55   186   185    1
    56   100   101    1
    57    57    55    1
    58    53    50    1
    59   194   193    1
    60   194   195   ar
    61   193   190    1
    62   114   112    1
    63    50    49    1
    64    50    51    1
    65    42    41    2
    66   102   101    1
    67   181   182    1
    68    49    41   am
    69    51    52    1
    70    45    47   ar
    71    45    44   ar
    72    43    44    1
    73    43    40    1
    74   185   182    1
    75   166   164    2
    76   190   189    1
    77   190   191    1
    78    41    40    1
    79    47    48   ar
    80    44    46   ar
    81   182   183    1
    82   162   161    2
    83    35    37   ar
    84    35    33   ar
    85   170   169    2
    86   165   164    1
    87   210   208    1
    88    37    38   ar
    89   113   112    1
    90   123   124   ar
    91   123   121   ar
    92   209   208    1
    93    40    39    1
    94   112   111    1
    95    46    48   ar
    96   164   163    1
    97   124   122   ar
    98   208   207    1
    99   191   192    2
   100   191   197   am
   101    38    36   ar
   102   169   168    1
   103   183   184    1
   104   121   120   ar
   105    33    32    1
   106    33    34   ar
   107   161   167   am
   108   161   160    1
   109   168   167    1
   110   168   171    1
   111   163   160    1
   112     1     2    1
   113    32    29    1
   114   197   198    1
   115   122   120   ar
   116     8     7    1
   117   160   159    1
   118    36    34   ar
   119   171   172    1
   120    31    30    2
   121   107   108    1
   122   120   119    1
   123   207   204    1
   124   202   201    1
   125   108   109    1
   126   198   201    1
   127   198   199    1
   128   203   204    1
   129     2     5    1
   130     2     3    1
   131    30    29    1
   132   131   130    1
   133     5     6    1
   134   115   109   am
   135   115   116    1
   136   204   205    1
   137   132   130    1
   138    29    28    1
   139     7     6    1
   140   109   110    2
   141   119   116    1
   142     3     4    1
   143   130   129    1
   144   199   200    1
   145   116   117    1
   146   151   150    2
   147   154   156   ar
   148   154   153   ar
   149    19    18    2
   150    28    18   am
   151   156   158   ar
   152   205   206    1
   153    18    17    1
   154   150   149    1
   155   158   157   ar
   156   117   118    1
   157   139   137    2
   158    20    17    1
   159    20    21    1
   160   129   126    1
   161   149   152    1
   162   149   148    1
   163   143   142    2
   164   153   152    1
   165   153   155   ar
   166    17    16    1
   167   157   155   ar
   168   125   126    1
   169    15    13    1
   170    12    11    1
   171   138   137    1
   172    14    13    1
   173   126   127    1
   174   142   148   am
   175   142   141    1
   176    11    10    1
   177    21    23    1
   178    21    22    1
   179    13    10    1
   180    23    25    2
   181    10     9    1
   182    22    24    2
   183   127   128    1
   184   144   141    1
   185   144   145    1
   186    25    26    1
   187   134   133    1
   188   134   135    1
   189   141   140    1
   190   146   145    2
   191    24    26    1
   192   145   147   am
   193   135   136    1
   194    26    27    2
