@<TRIPOS>MOLECULE
tmp/1hdsA00.pdb
 207 193 0 0 0
SMALL
GASTEIGER

@<TRIPOS>ATOM
      1  N         37.8530   -3.4280   26.2350 N.3    32  MET32      -0.1253
      2  CA        36.4350   -3.6180   25.0420 C.3    32  MET32       0.1471
      3  C         35.8690   -4.9620   25.4040 C.3    32  MET32       0.2054
      4  O         34.7400   -5.0460   24.9910 O.3    32  MET32      -0.2184
      5  CB        36.6660   -3.0770   24.1230 C.2    32  MET32       0.0017
      6  CG        37.0930   -3.9430   22.9290 C.2    32  MET32       0.0278
      7  SD        37.7800   -3.9910   21.2350 S.3    32  MET32      -0.1125
      8  CE        39.2880   -5.2970   21.6750 C.3    32  MET32       0.0742
      9  N         34.0470   -9.1700   21.1150 N.3    39  THR39      -0.1274
     10  CA        35.3740   -8.9480   20.6920 C.3    39  THR39       0.1548
     11  C         36.0640   -9.8810   21.2410 C.3    39  THR39       0.2036
     12  O         36.8490  -10.6780   20.4010 O.3    39  THR39      -0.2187
     13  CB        35.4100   -7.6750   20.5430 C.3    39  THR39       0.1721
     14  OG1       36.7740   -7.0760   20.5800 O.3    39  THR39      -0.2215
     15  CG2       34.6230   -6.5740   21.5460 C.3    39  THR39       0.0371
     16  N         38.6780  -13.5220   19.2800 N.3    42  TYR42      -0.1231
     17  CA        39.9850  -12.8960   18.8330 C.3    42  TYR42       0.1696
     18  C         40.9110  -13.1840   19.8920 C.2    42  TYR42       0.2592
     19  O         41.6450  -13.3620   19.7350 O.2    42  TYR42      -0.2718
     20  CB        40.1000  -11.5070   18.3170 C.3    42  TYR42       0.0328
     21  CG        39.0860  -11.3060   17.2190 C.3    42  TYR42       0.0245
     22  CD1       37.5780  -10.8700   17.4210 C.2    42  TYR42      -0.0235
     23  CD2       38.8840  -11.4270   15.9020 C.3    42  TYR42       0.0125
     24  CE1       36.6930  -10.8070   16.1950 C.2    42  TYR42       0.0329
     25  CE2       38.2110  -11.0300   14.9190 C.3    42  TYR42       0.0695
     26  CZ        36.9100  -10.8250   14.9210 C.2    42  TYR42       0.1728
     27  OH        36.2800  -10.7630   13.8330 O.2    42  TYR42      -0.2913
     28  N         40.1870  -13.1060   21.4630 N.am   43  PHE43      -0.1980
     29  CA        41.4070  -13.3670   22.2700 C.3    43  PHE43       0.1596
     30  C         41.7080  -14.4640   23.3510 C.2    43  PHE43       0.2287
     31  O         42.1750  -14.4490   24.4010 O.2    43  PHE43      -0.2864
     32  CB        41.9610  -11.7800   22.8400 C.3    43  PHE43       0.0300
     33  CG        41.7280  -10.6540   21.8730 C.3    43  PHE43       0.0068
     34  CD1       41.0280  -10.0690   21.1420 C.3    43  PHE43       0.0258
     35  CD2       43.4880  -10.4950   21.2940 C.3    43  PHE43       0.0051
     36  CE1       41.0610   -9.1880   20.3380 C.2    43  PHE43      -0.0307
     37  CE2       43.6110   -9.5710   20.0960 C.3    43  PHE43       0.0257
     38  CZ        42.3120   -8.8200   19.8910 C.2    43  PHE43      -0.0307
     39  N         43.5470  -17.1480   23.9400 N.3    45  HIS45      -0.1297
     40  CA        44.8360  -17.1060   24.3170 C.3    45  HIS45       0.1303
     41  C         45.3050  -16.5000   25.4700 C.3    45  HIS45       0.2013
     42  O         46.6160  -17.1590   25.7320 O.3    45  HIS45      -0.2188
     43  CB        46.1510  -16.4190   23.2160 C.3    45  HIS45       0.0641
     44  CG        45.3950  -15.5710   22.1870 C.2    45  HIS45       0.0523
     45  ND1       45.7700  -14.0840   21.8450 N.2    45  HIS45      -0.2581
     46  CD2       44.0620  -15.5490   21.5630 C.3    45  HIS45       0.1315
     47  CE1       45.1580  -13.3340   21.0820 C.3    45  HIS45       0.2147
     48  NE2       43.8170  -14.0200   20.5610 N.3    45  HIS45      -0.1875
     49  N         50.3970   -6.6570   24.4990 N.3    58  HIS58      -0.1241
     50  CA        49.3260   -6.2330   23.3630 C.3    58  HIS58       0.1621
     51  C         49.0950   -4.7740   23.2780 C.2    58  HIS58       0.2264
     52  O         49.0480   -4.3400   22.2210 O.2    58  HIS58      -0.2867
     53  CB        48.0230   -7.4650   22.9130 C.3    58  HIS58       0.0745
     54  CG        47.4780   -7.2800   21.6250 C.ar   58  HIS58       0.0817
     55  ND1       48.2740   -6.9850   20.4590 N.ar   58  HIS58      -0.2268
     56  CD2       46.1480   -7.0490   21.2620 C.ar   58  HIS58       0.1154
     57  CE1       47.5070   -6.5410   19.4210 C.ar   58  HIS58       0.1986
     58  NE2       46.1850   -6.5840   20.1010 N.ar   58  HIS58      -0.2212
     59  N         51.6320   -2.4050   22.0900 N.3    61  LYS61      -0.1175
     60  CA        51.4770   -2.5000   20.4930 C.3    61  LYS61       0.1987
     61  C         50.4530   -1.8620   19.5100 C.2    61  LYS61       0.2637
     62  O         51.2680   -1.3920   18.4710 O.2    61  LYS61      -0.2714
     63  CB        51.7840   -4.2340   19.8310 C.2    61  LYS61       0.0429
     64  CG        51.9680   -5.4530   20.9640 C.1    61  LYS61      -0.1064
     65  CD        52.3820   -6.0930   21.5930 C.2    61  LYS61       0.0355
     66  CE        52.7120   -7.7670   21.3560 C.3    61  LYS61       0.1435
     67  NZ        53.3110   -7.4970   19.9190 N.3    61  LYS61      -0.1255
     68  N         49.0030   -2.0600   19.9940 N.am   62  VAL62      -0.2030
     69  CA        48.0140   -1.3710   19.4090 C.3    62  VAL62       0.1282
     70  C         48.6290    0.0070   19.7960 C.3    62  VAL62       0.2035
     71  O         49.1410    0.4700   18.5730 O.3    62  VAL62      -0.2185
     72  CB        46.8210   -1.4540   19.6410 C.3    62  VAL62       0.0226
     73  CG1       45.5920   -0.5370   20.6390 C.3    62  VAL62       0.0018
     74  CG2       45.3780   -1.5800   19.0280 C.3    62  VAL62       0.0018
     75  N         51.6950    1.6550   16.9480 N.3    65  ALA65      -0.1231
     76  CA        51.3020    1.8610   15.7160 C.3    65  ALA65       0.1694
     77  C         50.6170    2.7710   15.7480 C.2    65  ALA65       0.2591
     78  O         50.6530    3.6710   14.7210 O.2    65  ALA65      -0.2718
     79  CB        50.1390    0.6880   15.1210 C.3    65  ALA65       0.0304
     80  N         49.5340    3.3880   16.5400 N.am   66  LEU66      -0.1980
     81  CA        48.8370    4.4420   16.9040 C.3    66  LEU66       0.1596
     82  C         49.5870    5.7720   16.6020 C.2    66  LEU66       0.2287
     83  O         49.2860    6.7820   16.2340 O.2    66  LEU66      -0.2864
     84  CB        47.8810    4.3520   18.0130 C.3    66  LEU66       0.0297
     85  CG        46.6370    3.6360   17.6290 C.3    66  LEU66       0.0022
     86  CD1       46.1770    3.8610   19.2530 C.3    66  LEU66       0.0001
     87  CD2       46.0340    3.9120   16.2210 C.3    66  LEU66       0.0001
     88  N         50.4140    1.4540    6.9750 N.3    80  LEU80      -0.1301
     89  CA        49.7640    0.2930    7.4810 C.3    80  LEU80       0.1247
     90  C         49.7740   -0.6720    6.8400 C.3    80  LEU80       0.2009
     91  O         49.0190   -1.9130    7.2080 O.3    80  LEU80      -0.2188
     92  CB        48.4120    1.1430    7.7690 C.3    80  LEU80       0.0233
     93  CG        49.1070    2.3150    9.2040 C.3    80  LEU80       0.0000
     94  CD1       48.3390    2.2670   10.5930 C.3    80  LEU80       0.0000
     95  CD2       50.8160    2.9560    9.5050 C.3    80  LEU80       0.0000
     96  N         50.0810   -4.4290    8.6910 N.3    83  LEU83      -0.1301
     97  CA        49.0230   -4.4630    9.4090 C.3    83  LEU83       0.1247
     98  C         47.9920   -4.1720    8.6530 C.3    83  LEU83       0.2009
     99  O         46.7160   -4.4230    9.2220 O.3    83  LEU83      -0.2188
    100  CB        48.9920   -3.4850   10.5980 C.3    83  LEU83       0.0217
    101  CG        49.0790   -3.3080   12.0910 C.3    83  LEU83       0.0015
    102  CD1       50.7100   -3.5080   12.2790 C.3    83  LEU83       0.0000
    103  CD2       48.9170   -1.7760   12.3000 C.3    83  LEU83       0.0000
    104  N         47.4870   -8.5860    8.4050 N.3    86  LEU86      -0.1231
    105  CA        47.1720   -9.1430    9.5450 C.3    86  LEU86       0.1693
    106  C         45.7690   -9.1460    9.8180 C.2    86  LEU86       0.2591
    107  O         45.4080  -10.1410    9.8950 O.2    86  LEU86      -0.2718
    108  CB        47.8270   -8.2850   10.6220 C.3    86  LEU86       0.0284
    109  CG        47.8740   -8.4000   12.0470 C.3    86  LEU86       0.0019
    110  CD1       48.3670   -9.6320   12.7870 C.3    86  LEU86       0.0001
    111  CD2       48.9910   -7.0200   12.5400 C.3    86  LEU86       0.0001
    112  N         45.0620   -7.6230    9.8760 N.am   87  HIS87      -0.1980
    113  CA        43.8080   -7.5650   10.3590 C.3    87  HIS87       0.1597
    114  C         42.3750   -8.1670    9.7210 C.2    87  HIS87       0.2287
    115  O         41.6350   -8.9130   10.0900 O.2    87  HIS87      -0.2864
    116  CB        43.0010   -6.4710   10.8650 C.3    87  HIS87       0.0319
    117  CG        44.2350   -5.9390   12.5610 C.ar   87  HIS87       0.1213
    118  ND1       45.5550   -5.2350   12.0230 N.ar   87  HIS87      -0.2208
    119  CD2       43.5420   -6.2870   13.5150 C.ar   87  HIS87       0.1213
    120  CE1       45.7970   -5.2130   13.5420 C.ar   87  HIS87       0.1990
    121  NE2       44.9730   -5.7170   14.2290 N.ar   87  HIS87      -0.2208
    122  N         43.4840  -12.3360    9.7740 N.3    91  LEU91      -0.1301
    123  CA        42.7220  -11.8630   11.3060 C.3    91  LEU91       0.1247
    124  C         41.1510  -11.9510   10.9900 C.3    91  LEU91       0.2009
    125  O         40.4610  -12.7900   11.8700 O.3    91  LEU91      -0.2188
    126  CB        43.5500  -10.8370   12.0690 C.3    91  LEU91       0.0217
    127  CG        44.3720  -11.3350   13.4330 C.3    91  LEU91       0.0015
    128  CD1       45.5140  -12.6650   13.8160 C.3    91  LEU91       0.0000
    129  CD2       45.5610  -10.5700   14.5070 C.3    91  LEU91       0.0000
    130  N         38.2730   -9.7240   11.3120 N.2    93  VAL93      -0.1493
    131  CA        38.2420   -8.8220   12.1650 C.2    93  VAL93       0.1221
    132  C         37.3020   -7.9010   11.5920 C.2    93  VAL93       0.2505
    133  O         37.3860   -7.1240   10.9530 O.2    93  VAL93      -0.2818
    134  CB        39.0270   -8.3950   13.2270 C.3    93  VAL93       0.0454
    135  CG1       40.5500   -9.3360   13.3300 C.3    93  VAL93       0.0065
    136  CG2       38.9330   -6.8540   14.0330 C.3    93  VAL93       0.0065
    137  N         33.4300   -4.5490   14.4400 N.3    97  ASN97      -0.1225
    138  CA        34.4750   -4.5830   15.7640 C.3    97  ASN97       0.1784
    139  C         35.4610   -3.3590   15.5780 C.2    97  ASN97       0.2593
    140  O         35.9070   -3.0270   16.6110 O.2    97  ASN97      -0.2718
    141  CB        34.8860   -5.8060   16.5160 C.3    97  ASN97       0.1169
    142  CG        33.5090   -6.3200   17.1080 C.2    97  ASN97       0.2627
    143  OD1       33.8020   -7.4750   16.4160 O.2    97  ASN97      -0.2716
    144  ND2       32.4050   -6.4040   17.7000 N.am   97  ASN97      -0.0877
    145  N         35.6640   -2.5100   14.7370 N.am   98  PHE98      -0.2032
    146  CA        36.7310   -1.4380   14.8460 C.3    98  PHE98       0.1289
    147  C         36.1260   -0.4930   15.5240 C.3    98  PHE98       0.2036
    148  O         37.0120    0.1430   16.2820 O.3    98  PHE98      -0.2185
    149  CB        37.4810   -1.2680   13.6120 C.3    98  PHE98       0.0330
    150  CG        38.1470   -2.0530   12.5980 C.3    98  PHE98       0.0451
    151  CD1       39.4530   -2.3370   13.1630 C.2    98  PHE98      -0.0263
    152  CD2       38.2280   -2.8020   11.5880 C.2    98  PHE98      -0.0263
    153  CE1       40.4070   -2.8650   12.6010 C.2    98  PHE98      -0.0257
    154  CE2       39.2480   -3.3760   10.9360 C.2    98  PHE98      -0.0257
    155  CZ        40.2820   -3.2360   11.2100 C.3    98  PHE98       0.0513
    156  N         36.3500   -0.9280   19.1310 N.3   101  LEU101     -0.1231
    157  CA        37.7100   -0.6880   19.9080 C.3   101  LEU101      0.1693
    158  C         38.1650    0.9460   20.2640 C.2   101  LEU101      0.2589
    159  O         38.7640    1.3350   21.1910 O.2   101  LEU101     -0.2718
    160  CB        39.0120   -1.4720   19.4280 C.3   101  LEU101      0.0284
    161  CG        40.6350   -0.9730   19.7660 C.3   101  LEU101      0.0019
    162  CD1       41.3430   -0.6570   21.0930 C.3   101  LEU101      0.0001
    163  CD2       41.1200   -2.6050   19.7070 C.3   101  LEU101      0.0001
    164  N         37.7190    1.8950   19.4230 N.am  102  SER102     -0.2006
    165  CA        37.7780    3.2930   19.0530 C.3   102  SER102      0.1610
    166  C         37.0040    3.8760   19.7390 C.3   102  SER102      0.2063
    167  O         37.7190    4.7350   20.4750 O.3   102  SER102     -0.2184
    168  CB        37.2930    3.6070   17.6840 C.3   102  SER102      0.2063
    169  OG        38.1460    2.7940   16.7650 O.3   102  SER102     -0.2184
    170  N         38.5350    3.5630   23.2710 N.3   105  LEU105     -0.1245
    171  CA        39.9540    4.4750   23.6620 C.3   105  LEU105      0.1561
    172  C         39.6520    5.7420   23.8290 C.2   105  LEU105      0.2260
    173  O         40.0870    6.5110   24.6100 O.2   105  LEU105     -0.2867
    174  CB        40.7720    4.2630   22.3390 C.3   105  LEU105      0.0270
    175  CG        41.6770    4.1110   21.4130 C.3   105  LEU105      0.0019
    176  CD1       43.0790    4.1990   22.4670 C.3   105  LEU105      0.0001
    177  CD2       42.3480    2.9060   20.8050 C.3   105  LEU105      0.0001
    178  N         40.5600    8.1500   14.2900 N.3   129  LEU129     -0.1301
    179  CA        40.3820    6.5490   14.6180 C.3   129  LEU129      0.1247
    180  C         39.6100    5.9670   13.6250 C.3   129  LEU129      0.2009
    181  O         40.0800    5.0880   13.3550 O.3   129  LEU129     -0.2188
    182  CB        40.0700    6.1540   16.0060 C.3   129  LEU129      0.0217
    183  CG        40.8990    6.3030   17.0480 C.3   129  LEU129      0.0015
    184  CD1       40.2580    6.3920   18.1990 C.3   129  LEU129      0.0000
    185  CD2       42.0910    5.2590   17.0910 C.3   129  LEU129      0.0000
    186  N         42.0240    5.7120   10.7500 N.3   132  ASP132     -0.1230
    187  CA        42.6270    4.2830   11.2600 C.3   132  ASP132      0.1719
    188  C         41.8280    3.0350   10.4880 C.2   132  ASP132      0.2596
    189  O         42.3580    2.2050    9.4960 O.2   132  ASP132     -0.2718
    190  CB        43.6830    4.5740   12.4590 C.3   132  ASP132      0.0639
    191  CG        43.7080    3.2130   12.4800 C.3   132  ASP132      0.1841
    192  OD1       43.1220    1.9520   12.7490 O.3   132  ASP132     -0.2204
    193  OD2       45.4180    3.4690   13.2300 O.3   132  ASP132      0.0000
    194  N         40.8290    2.9460   11.0850 N.am  133  SER133     -0.1898
    195  CA        39.9360    1.8240   10.9020 C.3   133  SER133      0.2236
    196  C         39.7890    1.6420    9.5460 C.2   133  SER133      0.2368
    197  O         39.6670    0.8360    8.8520 O.2   133  SER133     -0.2859
    198  CB        38.7550    1.9780   11.7720 C.2   133  SER133      0.2368
    199  OG        38.3710    2.7250   12.6590 O.2   133  SER133     -0.2859
    200  N         43.1460    0.0360    7.7240 N.3   136  LEU136     -0.1301
    201  CA        43.0790   -1.4950    8.0920 C.3   136  LEU136      0.1247
    202  C         41.8370   -2.7950    7.9490 C.3   136  LEU136      0.2009
    203  O         41.4950   -4.1710    8.1760 O.3   136  LEU136     -0.2188
    204  CB        42.8960   -1.5130    9.7730 C.3   136  LEU136      0.0217
    205  CG        42.9970   -0.4210   10.2450 C.3   136  LEU136      0.0015
    206  CD1       42.6490   -0.7380   11.9670 C.3   136  LEU136      0.0000
    207  CD2       44.0730    0.2690   10.0760 C.3   136  LEU136      0.0000
@<TRIPOS>BOND
     1    90    91    1
     2    90    89    1
     3    88    89    1
     4    89    92    1
     5   200   201    1
     6   202   201    1
     7   202   203    1
     8   201   204    1
     9   104   105    1
    10    98    99    1
    11    98    97    1
    12    96    97    1
    13   197   196    2
    14    93    95    1
    15    93    94    1
    16    97   100    1
    17   189   188    2
    18   105   106    1
    19   105   108    1
    20   196   195    1
    21   114   115    2
    22   114   113    1
    23   204   205    1
    24   122   123    1
    25   106   112   am
    26   106   107    2
    27   112   113    1
    28   207   205    1
    29   205   206    1
    30   113   116    1
    31   188   194   am
    32   188   187    1
    33   100   101    1
    34   108   109    1
    35   186   187    1
    36   195   194    1
    37   195   198    1
    38   154   155    1
    39   154   152    2
    40   133   132    2
    41   124   123    1
    42   124   125    1
    43   155   153    1
    44   187   190    1
    45   123   126    1
    46   130   131    2
    47   152   150    1
    48   132   131    1
    49   198   199    2
    50   118   117   ar
    51   118   120   ar
    52   109   111    1
    53   109   110    1
    54   126   127    1
    55   101   102    1
    56   101   103    1
    57   131   134    1
    58   190   191    1
    59   191   192    1
    60   117   119   ar
    61   150   151    1
    62   150   149    1
    63   153   151    2
    64   134   135    1
    65   134   136    1
    66   181   180    1
    67   127   128    1
    68   127   129    1
    69   119   121   ar
    70   120   121   ar
    71   149   146    1
    72   180   179    1
    73    27    26    2
    74   178   179    1
    75   137   138    1
    76   179   182    1
    77    78    77    2
    78   145   146    1
    79   145   139   am
    80   146   147    1
    81    25    26    1
    82    25    23    1
    83    26    24    1
    84    79    76    1
    85   147   148    1
    86   139   138    1
    87   139   140    2
    88    76    77    1
    89    76    75    1
    90    77    80   am
    91   138   141    1
    92    23    21    1
    93   182   183    1
    94    24    22    2
    95    87    85    1
    96    83    82    2
    97   143   142    2
    98   141   142    1
    99    80    81    1
   100    82    81    1
   101   169   168    1
   102    81    84    1
   103   183   185    1
   104   183   184    1
   105   142   144   am
   106    21    22    1
   107    21    20    1
   108    85    84    1
   109    85    86    1
   110   168   165    1
   111    20    17    1
   112    62    61    2
   113    71    70    1
   114    17    16    1
   115    17    18    1
   116    74    72    1
   117    74    73    1
   118   165   164    1
   119   165   166    1
   120   156   157    1
   121    69    72    1
   122    69    70    1
   123    69    68    1
   124    57    58   ar
   125    57    55   ar
   126   164   158   am
   127   160   161    1
   128   160   157    1
   129    61    68   am
   130    61    60    1
   131    72    73    1
   132   163   161    1
   133    19    18    2
   134   166   167    1
   135   161   162    1
   136    63    60    1
   137    63    64    2
   138    38    37    1
   139    38    36    2
   140    18    28   am
   141   157   158    1
   142    67    66    1
   143    37    35    1
   144    58    56   ar
   145   158   159    2
   146    36    34    1
   147    12    11    1
   148    55    54   ar
   149    60    59    1
   150    13    14    1
   151    13    10    1
   152    13    15    1
   153    48    47    1
   154    48    46    1
   155    10     9    1
   156    10    11    1
   157   177   175    1
   158    64    65    2
   159    47    45    1
   160    34    33    1
   161     7     8    1
   162     7     6    1
   163    56    54   ar
   164    35    33    1
   165    66    65    1
   166   175   174    1
   167   175   176    1
   168    28    29    1
   169    46    44    1
   170    54    53    1
   171    45    44    2
   172    33    32    1
   173    44    43    1
   174    52    51    2
   175    29    32    1
   176    29    30    1
   177   174   171    1
   178    53    50    1
   179     6     5    2
   180    43    40    1
   181   170   171    1
   182    51    50    1
   183    30    31    2
   184    50    49    1
   185   171   172    1
   186   172   173    2
   187    39    40    1
   188     5     2    1
   189    40    41    1
   190     4     3    1
   191     2     3    1
   192     2     1    1
   193    41    42    1
