@<TRIPOS>MOLECULE
tmp/1hdtB00.pdb
 224 224 0 0 0
SMALL
GASTEIGER

@<TRIPOS>ATOM
      1  N         22.9760   34.2260    2.5980 N.3    43  HIS43      -0.1241
      2  CA        22.2300   34.9830    1.6150 C.3    43  HIS43       0.1621
      3  C         22.4590   36.4780    1.4710 C.2    43  HIS43       0.2264
      4  O         21.9690   37.0750    0.5190 O.2    43  HIS43      -0.2867
      5  CB        20.7490   34.6690    1.7010 C.3    43  HIS43       0.0745
      6  CG        20.0320   35.3810    2.7930 C.ar   43  HIS43       0.0817
      7  ND1       20.2550   35.1660    4.1310 N.ar   43  HIS43      -0.2268
      8  CD2       18.9880   36.2440    2.7330 C.ar   43  HIS43       0.1154
      9  CE1       19.3480   35.8750    4.8240 C.ar   43  HIS43       0.1986
     10  NE2       18.5500   36.5500    4.0230 N.ar   43  HIS43      -0.2212
     11  N         22.9780   35.2430   -3.7420 N.3    47  TYR47      -0.1241
     12  CA        21.5920   35.0130   -4.0590 C.3    47  TYR47       0.1605
     13  C         21.2660   35.1280   -5.5440 C.2    47  TYR47       0.2264
     14  O         20.4820   35.9920   -5.9440 O.2    47  TYR47      -0.2867
     15  CB        20.6940   35.9190   -3.2200 C.3    47  TYR47       0.0534
     16  CG        19.3460   35.3180   -3.0540 C.ar   47  TYR47      -0.0201
     17  CD1       19.2040   34.0140   -2.5550 C.ar   47  TYR47      -0.0009
     18  CD2       18.2180   35.9820   -3.4970 C.ar   47  TYR47      -0.0009
     19  CE1       17.9610   33.3900   -2.5210 C.ar   47  TYR47       0.0417
     20  CE2       16.9800   35.3710   -3.4710 C.ar   47  TYR47       0.0417
     21  CZ        16.8610   34.0770   -2.9880 C.ar   47  TYR47       0.1957
     22  OH        15.6340   33.4840   -3.0070 O.3    47  TYR47      -0.2866
     23  N         18.5310   36.9080   -7.5480 N.3    50  TRP50      -0.1241
     24  CA        18.4870   38.3670   -7.3170 C.3    50  TRP50       0.1605
     25  C         19.8600   38.9540   -7.6400 C.2    50  TRP50       0.2264
     26  O         20.2250   40.0080   -7.1390 O.2    50  TRP50      -0.2867
     27  CB        18.2680   38.7070   -5.8260 C.3    50  TRP50       0.0550
     28  CG        16.9290   38.5480   -5.2240 C.ar   50  TRP50       0.0003
     29  CD1       15.8320   37.9350   -5.7620 C.ar   50  TRP50       0.0946
     30  CD2       16.5320   39.0340   -3.9370 C.ar   50  TRP50       0.0152
     31  NE1       14.7620   38.0160   -4.8810 N.ar   50  TRP50      -0.2442
     32  CE2       15.1710   38.6910   -3.7570 C.ar   50  TRP50       0.0810
     33  CE3       17.1980   39.7340   -2.9150 C.ar   50  TRP50       0.0012
     34  CZ2       14.4580   39.0320   -2.5870 C.ar   50  TRP50       0.0191
     35  CZ3       16.4950   40.0730   -1.7480 C.ar   50  TRP50       0.0001
     36  CH2       15.1400   39.7230   -1.5960 C.ar   50  TRP50       0.0015
     37  N         22.9010   38.6540   -6.3500 N.3    52  LYS52      -0.1245
     38  CA        23.8500   39.0540   -5.2920 C.3    52  LYS52       0.1561
     39  C         25.0150   38.0870   -5.2960 C.2    52  LYS52       0.2260
     40  O         24.8130   36.8940   -5.1710 O.2    52  LYS52      -0.2867
     41  CB        23.2300   39.0210   -3.8990 C.3    52  LYS52       0.0271
     42  CG        22.0600   39.8950   -3.7360 C.3    52  LYS52       0.0035
     43  CD        21.1460   39.4260   -2.6100 C.3    52  LYS52       0.0206
     44  CE        21.7520   39.6140   -1.2240 C.3    52  LYS52       0.1093
     45  NZ        20.5610   39.6970   -0.2980 N.3    52  LYS52      -0.1314
     46  N         20.7660   27.6740   -1.9350 N.3    92  TRP92      -0.1241
     47  CA        19.9340   28.8420   -2.2250 C.3    92  TRP92       0.1605
     48  C         18.6380   28.5940   -2.9810 C.2    92  TRP92       0.2264
     49  O         17.6980   29.3770   -2.8510 O.2    92  TRP92      -0.2867
     50  CB        20.7620   29.9330   -2.9250 C.3    92  TRP92       0.0550
     51  CG        21.3620   29.5420   -4.2420 C.ar   92  TRP92       0.0003
     52  CD1       22.6990   29.2790   -4.5060 C.ar   92  TRP92       0.0946
     53  CD2       20.6690   29.4030   -5.4860 C.ar   92  TRP92       0.0152
     54  NE1       22.8560   28.9880   -5.8460 N.ar   92  TRP92      -0.2442
     55  CE2       21.6280   29.0620   -6.4660 C.ar   92  TRP92       0.0810
     56  CE3       19.3330   29.5310   -5.8660 C.ar   92  TRP92       0.0012
     57  CZ2       21.2860   28.8560   -7.7970 C.ar   92  TRP92       0.0191
     58  CZ3       18.9890   29.3200   -7.1930 C.ar   92  TRP92       0.0001
     59  CH2       19.9630   28.9880   -8.1420 C.ar   92  TRP92       0.0015
     60  N         16.0670   26.3220   -2.6450 N.3    94  GLU94      -0.1231
     61  CA        14.8040   25.9550   -2.0460 C.3    94  GLU94       0.1699
     62  C         14.5390   26.3850   -0.6260 C.2    94  GLU94       0.2592
     63  O         13.3860   26.6420   -0.2760 O.2    94  GLU94      -0.2718
     64  CB        14.6010   24.4390   -2.1850 C.3    94  GLU94       0.0402
     65  CG        15.8920   23.6200   -1.9160 C.3    94  GLU94       0.1161
     66  CD        15.8590   22.1710   -2.4220 C.2    94  GLU94       0.3649
     67  OE1       14.8900   21.4400   -2.1000 O.co2  94  GLU94      -0.2457
     68  OE2       16.8280   21.7620   -3.1140 O.co2  94  GLU94      -0.2457
     69  N         15.5660   26.4930    0.2060 N.am   95  ASN95      -0.1960
     70  CA        15.2890   26.8620    1.5900 C.3    95  ASN95       0.1819
     71  C         16.4460   27.4700    2.3970 C.2    95  ASN95       0.2621
     72  O         16.4140   27.4940    3.6310 O.2    95  ASN95      -0.2715
     73  CB        14.6840   25.6460    2.3240 C.3    95  ASN95       0.1195
     74  CG        15.7140   24.5250    2.6190 C.2    95  ASN95       0.2630
     75  OD1       16.8460   24.5160    2.1100 O.2    95  ASN95      -0.2716
     76  ND2       15.3200   23.5950    3.4730 N.am   95  ASN95      -0.0877
     77  N         17.4660   27.9560    1.7000 N.am   96  LEU96      -0.1977
     78  CA        18.6150   28.5670    2.3560 C.3    96  LEU96       0.1596
     79  C         19.1160   27.6730    3.5000 C.2    96  LEU96       0.2287
     80  O         19.3170   28.1140    4.6250 O.2    96  LEU96      -0.2864
     81  CB        18.2570   29.9850    2.8610 C.3    96  LEU96       0.0297
     82  CG        18.1070   31.2840    2.0210 C.3    96  LEU96       0.0022
     83  CD1       18.4010   31.0620    0.5710 C.3    96  LEU96       0.0001
     84  CD2       16.7250   31.9020    2.2050 C.3    96  LEU96       0.0001
     85  N          6.3400   44.4460    7.4770 N.3   146  GLU146     -0.1245
     86  CA         6.5030   43.6530    6.2660 C.3   146  GLU146      0.1567
     87  C          5.9950   44.5140    5.1160 C.2   146  GLU146      0.2260
     88  O          4.8330   44.9440    5.1600 O.2   146  GLU146     -0.2867
     89  CB         5.6230   42.3920    6.3870 C.3   146  GLU146      0.0388
     90  CG         5.5580   41.4990    5.1590 C.3   146  GLU146      0.1160
     91  CD         4.1630   40.9960    4.8780 C.2   146  GLU146      0.3649
     92  OE1        3.3320   40.9470    5.8030 O.co2 146  GLU146     -0.2457
     93  OE2        3.8880   40.6410    3.7200 O.co2 146  GLU146     -0.2457
     94  N          7.4520   25.0870    3.5580 N.3   179  ILE179     -0.1245
     95  CA         8.8580   25.1190    3.1580 C.3   179  ILE179      0.1561
     96  C          9.4440   23.9290    3.9240 C.2   179  ILE179      0.2260
     97  O          8.9610   23.5780    5.0090 O.2   179  ILE179     -0.2867
     98  CB         9.5760   26.4820    3.5360 C.3   179  ILE179      0.0252
     99  CG1        9.0810   27.6080    2.6210 C.3   179  ILE179      0.0019
    100  CG2       11.1200   26.3880    3.4110 C.3   179  ILE179      0.0019
    101  CD1        9.7750   27.6960    1.2900 C.3   179  ILE179      0.0001
    102  N          8.9620   40.0540   15.7440 N.3   199  ASP199     -0.1225
    103  CA         9.5820   39.2090   14.7330 C.3   199  ASP199      0.1805
    104  C         10.8250   39.9240   14.2550 C.2   199  ASP199      0.2598
    105  O         11.1460   40.9990   14.7450 O.2   199  ASP199     -0.2718
    106  CB         8.6160   39.1360   13.5360 C.3   199  ASP199      0.1424
    107  CG         8.8090   37.8970   12.6510 C.2   199  ASP199      0.3668
    108  OD1        9.9010   37.2930   12.6300 O.co2 199  ASP199     -0.2456
    109  OD2        7.8420   37.5330   11.9520 O.co2 199  ASP199     -0.2456
    110  N         11.5890   39.2620   13.3940 N.am  200  ALA200     -0.1966
    111  CA        12.7340   39.8700   12.7500 C.3   200  ALA200      0.1728
    112  C         12.0840   40.2210   11.4160 C.2   200  ALA200      0.2616
    113  O         10.8950   39.8910   11.1990 O.2   200  ALA200     -0.2715
    114  CB        13.8240   38.8610   12.5390 C.3   200  ALA200      0.0334
    115  N         12.8140   40.8710   10.5100 N.am  201  CYS201     -0.1954
    116  CA        12.2160   41.2140    9.2160 C.3   201  CYS201      0.1843
    117  C         13.2310   41.6640    8.1780 C.2   201  CYS201      0.2625
    118  O         14.4500   41.6170    8.4290 O.2   201  CYS201     -0.2714
    119  CB        11.0840   42.2040    9.4060 C.3   201  CYS201      0.0997
    120  SG        10.0950   42.5600    7.9330 S.3   201  CYS201     -0.0797
    121  N         12.7510   42.0170    6.9940 N.am  202  GLU202     -0.1977
    122  CA        13.6290   42.4040    5.9000 C.3   202  GLU202      0.1602
    123  C         14.6790   43.4020    6.2970 C.2   202  GLU202      0.2287
    124  O         14.3640   44.4860    6.7670 O.2   202  GLU202     -0.2864
    125  CB        12.8120   42.9250    4.7290 C.3   202  GLU202      0.0415
    126  CG        11.9770   41.8530    4.0430 C.3   202  GLU202      0.1163
    127  CD        12.3780   41.6330    2.5970 C.2   202  GLU202      0.3649
    128  OE1       11.8370   42.3530    1.7230 O.co2 202  GLU202     -0.2457
    129  OE2       13.2350   40.7530    2.3330 O.co2 202  GLU202     -0.2457
    130  N         18.2070   39.9540    8.3490 N.3   205  SER205     -0.1217
    131  CA        18.9730   38.7550    7.9740 C.3   205  SER205      0.1889
    132  C         20.4390   38.8910    8.4160 C.2   205  SER205      0.2288
    133  O         20.9830   39.9960    8.4010 O.2   205  SER205     -0.2866
    134  CB        18.9580   38.5830    6.4450 C.3   205  SER205      0.2089
    135  OG        17.6630   38.7140    5.8890 O.3   205  SER205     -0.2183
    136  N         20.0170   35.3240   11.8870 N.3   225  VAL225     -0.1231
    137  CA        18.7130   35.6990   11.3190 C.3   225  VAL225      0.1692
    138  C         18.5930   35.1670    9.8670 C.2   225  VAL225      0.2593
    139  O         19.4990   35.3930    9.0470 O.2   225  VAL225     -0.2718
    140  CB        18.4800   37.2270   11.4840 C.3   225  VAL225      0.0266
    141  CG1       17.0450   37.5800   11.1800 C.3   225  VAL225      0.0020
    142  CG2       18.7590   37.6310   12.9240 C.3   225  VAL225      0.0020
    143  N         17.5070   34.4550    9.5450 N.am  226  SER226     -0.1938
    144  CA        17.4510   33.8520    8.2150 C.3   226  SER226      0.2055
    145  C         16.3290   33.9920    7.2270 C.2   226  SER226      0.2643
    146  O         16.5820   34.4230    6.1130 O.2   226  SER226     -0.2714
    147  CB        17.8370   32.3670    8.2880 C.3   226  SER226      0.2130
    148  OG        18.2870   31.8800    7.0130 O.3   226  SER226     -0.2179
    149  N         15.1370   33.5300    7.5550 N.am  227  TRP227     -0.1959
    150  CA        14.0360   33.6140    6.6230 C.3   227  TRP227      0.1771
    151  C         12.7300   33.4520    7.3020 C.2   227  TRP227      0.2620
    152  O         12.6790   33.2570    8.5020 O.2   227  TRP227     -0.2715
    153  CB        14.1460   32.5720    5.4770 C.3   227  TRP227      0.0590
    154  CG        13.9650   31.0670    5.8060 C.ar  227  TRP227      0.0006
    155  CD1       14.9630   30.1530    6.0500 C.ar  227  TRP227      0.0946
    156  CD2       12.7240   30.3310    5.9160 C.ar  227  TRP227      0.0152
    157  NE1       14.4090   28.9150    6.3110 N.ar  227  TRP227     -0.2442
    158  CE2       13.0450   29.0060    6.2330 C.ar  227  TRP227      0.0810
    159  CE3       11.3770   30.6710    5.7780 C.ar  227  TRP227      0.0012
    160  CZ2       12.0650   28.0420    6.4130 C.ar  227  TRP227      0.0191
    161  CZ3       10.4140   29.7080    5.9570 C.ar  227  TRP227      0.0001
    162  CH2       10.7530   28.4220    6.2670 C.ar  227  TRP227      0.0015
    163  N         11.6600   33.5950    6.5440 N.am  228  GLY228     -0.1940
    164  CA        10.3410   33.4280    7.1120 C.3   228  GLY228      0.2014
    165  C          9.3940   33.7380    5.9930 C.2   228  GLY228      0.2639
    166  O          9.8250   34.0180    4.8860 O.2   228  GLY228     -0.2714
    167  N          8.1120   33.6320    6.2350 N.am  229  GLU229     -0.1963
    168  CA         7.1630   33.9750    5.1980 C.3   229  GLU229      0.1733
    169  C          6.3960   35.1690    5.7780 C.2   229  GLU229      0.2617
    170  O          5.7090   35.0550    6.8080 O.2   229  GLU229     -0.2715
    171  CB         6.2410   32.7840    4.8660 C.3   229  GLU229      0.0429
    172  CG         7.0340   31.5280    4.4230 C.3   229  GLU229      0.1163
    173  CD         6.1920   30.3270    3.9620 C.2   229  GLU229      0.3649
    174  OE1        4.9600   30.2810    4.1660 O.co2 229  GLU229     -0.2457
    175  OE2        6.7930   29.4050    3.3720 O.co2 229  GLU229     -0.2457
    176  N          6.6080   36.3440    5.1890 N.am  230  GLY230     -0.1940
    177  CA         5.9320   37.5320    5.6820 C.3   230  GLY230      0.2014
    178  C          6.6800   38.0190    6.9070 C.2   230  GLY230      0.2639
    179  O          7.7250   37.4750    7.2180 O.2   230  GLY230     -0.2714
    180  N          6.2130   39.0890    7.5450 N.am  231  CYS231     -0.1967
    181  CA         6.8620   39.5780    8.7590 C.3   231  CYS231      0.1712
    182  C          5.7470   39.7740    9.7760 C.2   231  CYS231      0.2296
    183  O          4.7590   40.4490    9.4590 O.2   231  CYS231     -0.2864
    184  CB         7.5870   40.9140    8.5160 C.3   231  CYS231      0.0983
    185  SG         9.1020   40.8410    7.5090 S.3   231  CYS231     -0.0798
    186  N          6.0670   31.8900   12.2310 N.3   237  TYR237     -0.1227
    187  CA         7.2480   32.0640   13.1030 C.3   237  TYR237      0.1736
    188  C          8.4330   32.3820   12.2190 C.2   237  TYR237      0.2596
    189  O          8.3320   32.2540   11.0110 O.2   237  TYR237     -0.2718
    190  CB         7.5420   30.7560   13.9060 C.3   237  TYR237      0.0548
    191  CG         6.3420   30.1270   14.6060 C.ar  237  TYR237     -0.0200
    192  CD1        5.4290   29.3560   13.8980 C.ar  237  TYR237     -0.0009
    193  CD2        6.0660   30.3970   15.9440 C.ar  237  TYR237     -0.0009
    194  CE1        4.2560   28.8890   14.4920 C.ar  237  TYR237      0.0417
    195  CE2        4.8990   29.9210   16.5490 C.ar  237  TYR237      0.0417
    196  CZ         3.9980   29.1840   15.8110 C.ar  237  TYR237      0.1957
    197  OH         2.7850   28.8340   16.3620 O.3   237  TYR237     -0.2866
    198  N          9.5780   32.6920   12.8020 N.am  238  GLY238     -0.1942
    199  CA        10.7300   33.0500   11.9940 C.3   238  GLY238      0.2014
    200  C         11.7650   31.9830   12.1780 C.2   238  GLY238      0.2639
    201  O         11.7640   31.4050   13.2490 O.2   238  GLY238     -0.2714
    202  N         12.6880   31.8190   11.2110 N.am  239  PHE239     -0.1959
    203  CA        13.7250   30.7680   11.2120 C.3   239  PHE239      0.1771
    204  C         15.1760   31.1950   11.3200 C.2   239  PHE239      0.2619
    205  O         15.6310   32.0620   10.5760 O.2   239  PHE239     -0.2715
    206  CB        13.5690   29.8730    9.9770 C.3   239  PHE239      0.0574
    207  CG        12.3670   28.9650   10.0400 C.ar  239  PHE239     -0.0200
    208  CD1       11.0830   29.4910   10.0690 C.ar  239  PHE239     -0.0042
    209  CD2       12.5190   27.5730   10.1100 C.ar  239  PHE239     -0.0042
    210  CE1        9.9730   28.6490   10.1620 C.ar  239  PHE239     -0.0003
    211  CE2       11.3970   26.7240   10.2050 C.ar  239  PHE239     -0.0003
    212  CZ        10.1430   27.2570   10.2290 C.ar  239  PHE239     -0.0000
    213  N         15.9290   30.5370   12.1950 N.am  240  TYR240     -0.1974
    214  CA        17.3140   30.9010   12.3740 C.3   240  TYR240      0.1639
    215  C         18.2000   29.7120   12.0670 C.2   240  TYR240      0.2290
    216  O         17.8280   28.5720   12.3000 O.2   240  TYR240     -0.2864
    217  CB        17.5750   31.4270   13.8150 C.3   240  TYR240      0.0560
    218  CG        16.6290   32.5330   14.2350 C.ar  240  TYR240     -0.0198
    219  CD1       15.2720   32.2950   14.2950 C.ar  240  TYR240     -0.0009
    220  CD2       17.0730   33.8540   14.4280 C.ar  240  TYR240     -0.0009
    221  CE1       14.3590   33.3170   14.5010 C.ar  240  TYR240      0.0417
    222  CE2       16.1570   34.9020   14.6510 C.ar  240  TYR240      0.0417
    223  CZ        14.7940   34.6110   14.6670 C.ar  240  TYR240      0.1957
    224  OH        13.8160   35.5750   14.7530 O.3   240  TYR240     -0.2866
@<TRIPOS>BOND
     1    59    57   ar
     2    59    58   ar
     3    57    55   ar
     4    25    24    1
     5    25    26    2
     6    23    24    1
     7    24    27    1
     8    58    56   ar
     9    55    54   ar
    10    55    53   ar
    11    37    38    1
    12    14    13    2
    13    56    53   ar
    14    54    52   ar
    15    27    28    1
    16    29    28   ar
    17    29    31   ar
    18    13    12    1
    19    53    51   ar
    20    39    38    1
    21    39    40    2
    22    38    41    1
    23    28    30   ar
    24    31    32   ar
    25    52    51   ar
    26    51    50    1
    27    12    11    1
    28    12    15    1
    29    30    32   ar
    30    30    33   ar
    31    41    42    1
    32    32    34   ar
    33    42    43    1
    34    18    20   ar
    35    18    16   ar
    36    20    21   ar
    37    15    16    1
    38    68    66   ar
    39    16    17   ar
    40    22    21    1
    41    21    19   ar
    42    48    49    2
    43    48    47    1
    44    50    47    1
    45    33    35   ar
    46    60    61    1
    47    43    44    1
    48    34    36   ar
    49    17    19   ar
    50    66    67   ar
    51    66    65    1
    52    47    46    1
    53    64    61    1
    54    64    65    1
    55    61    62    1
    56    35    36   ar
    57    44    45    1
    58    62    63    2
    59    62    69   am
    60    69    70    1
    61     4     3    2
    62    83    82    1
    63   101    99    1
    64     3     2    1
    65    70    73    1
    66    70    71    1
    67     2     5    1
    68     2     1    1
    69    77    78    1
    70    77    71   am
    71     5     6    1
    72   128   127   ar
    73    82    84    1
    74    82    81    1
    75    75    74    2
    76    73    74    1
    77   129   127   ar
    78    78    81    1
    79    78    79    1
    80    71    72    2
    81   127   126    1
    82    74    76   am
    83    99    98    1
    84     8     6   ar
    85     8    10   ar
    86     6     7   ar
    87    95    98    1
    88    95    94    1
    89    95    96    1
    90   175   173   ar
    91   100    98    1
    92    79    80    2
    93    93    91   ar
    94    96    97    2
    95   173   174   ar
    96   173   172    1
    97    10     9   ar
    98   126   125    1
    99     7     9   ar
   100   172   171    1
   101   125   122    1
   102   171   168    1
   103    91    90    1
   104    91    92   ar
   105   166   165    2
   106    87    88    2
   107    87    86    1
   108    90    89    1
   109   176   177    1
   110   176   169   am
   111   168   169    1
   112   168   167    1
   113   153   154    1
   114   153   150    1
   115   177   178    1
   116   169   170    2
   117   159   156   ar
   118   159   161   ar
   119   154   156   ar
   120   154   155   ar
   121   135   134    1
   122   122   123    1
   123   122   121    1
   124   156   158   ar
   125   161   162   ar
   126   165   167   am
   127   165   164    1
   128   155   157   ar
   129   146   145    2
   130   158   157   ar
   131   158   160   ar
   132    86    89    1
   133    86    85    1
   134   162   160   ar
   135   123   124    2
   136   134   131    1
   137   163   164    1
   138   163   151   am
   139   150   151    1
   140   150   149    1
   141   178   179    2
   142   178   180   am
   143   121   117   am
   144   148   147    1
   145   145   149   am
   146   145   144    1
   147   151   152    2
   148   185   120    1
   149   185   184    1
   150   180   181    1
   151   120   119    1
   152   131   130    1
   153   131   132    1
   154   117   118    2
   155   117   116    1
   156   144   147    1
   157   144   143    1
   158   133   132    2
   159   184   181    1
   160   181   182    1
   161   139   138    2
   162   116   119    1
   163   116   115    1
   164   183   182    2
   165   143   138   am
   166   138   137    1
   167   206   207    1
   168   206   203    1
   169   207   208   ar
   170   207   209   ar
   171   208   210   ar
   172   209   211   ar
   173   210   212   ar
   174   211   212   ar
   175   115   112   am
   176   205   204    2
   177   189   188    2
   178   141   140    1
   179   113   112    2
   180   202   203    1
   181   202   200   am
   182   203   204    1
   183   137   140    1
   184   137   136    1
   185   204   213   am
   186   112   111    1
   187   140   142    1
   188   109   107   ar
   189   199   200    1
   190   199   198    1
   191   215   216    2
   192   215   214    1
   193   200   201    2
   194   213   214    1
   195   188   198   am
   196   188   187    1
   197   186   187    1
   198   214   217    1
   199   114   111    1
   200   108   107   ar
   201   107   106    1
   202   111   110    1
   203   187   190    1
   204   110   104   am
   205   106   103    1
   206   217   218    1
   207   192   194   ar
   208   192   191   ar
   209   190   191    1
   210   218   219   ar
   211   218   220   ar
   212   104   103    1
   213   104   105    2
   214   219   221   ar
   215   220   222   ar
   216   194   196   ar
   217   221   223   ar
   218   191   193   ar
   219   222   223   ar
   220   223   224    1
   221   103   102    1
   222   196   197    1
   223   196   195   ar
   224   193   195   ar
