@<TRIPOS>MOLECULE
tmp/1hduA00.pdb
 171 163 0 0 0
SMALL
GASTEIGER

@<TRIPOS>ATOM
      1  N          7.8830    0.8350   -0.7620 N.3    69  HIS69      -0.1241
      2  CA         9.1740    1.4430   -0.4140 C.3    69  HIS69       0.1621
      3  C          9.5520    0.7750    0.9140 C.2    69  HIS69       0.2264
      4  O          8.9460    1.0370    1.9560 O.2    69  HIS69      -0.2867
      5  CB         9.0420    2.9610   -0.2570 C.3    69  HIS69       0.0745
      6  CG         8.9020    3.6870   -1.5610 C.ar   69  HIS69       0.0817
      7  ND1        8.1130    4.8050   -1.7130 N.ar   69  HIS69      -0.2268
      8  CD2        9.4580    3.4560   -2.7740 C.ar   69  HIS69       0.1154
      9  CE1        8.1860    5.2320   -2.9610 C.ar   69  HIS69       0.1986
     10  NE2        8.9980    4.4310   -3.6260 N.ar   69  HIS69      -0.2212
     11  N          9.8080    2.3030    4.7640 N.3    72  GLU72      -0.1245
     12  CA         8.6270    2.8620    5.4170 C.3    72  GLU72       0.1567
     13  C          7.9470    1.7700    6.2380 C.2    72  GLU72       0.2260
     14  O          6.8130    1.3790    5.9660 O.2    72  GLU72      -0.2867
     15  CB         7.7020    3.4310    4.3410 C.3    72  GLU72       0.0388
     16  CG         8.4050    4.5170    3.5400 C.3    72  GLU72       0.1160
     17  CD         7.6690    4.9300    2.2780 C.2    72  GLU72       0.3649
     18  OE1        6.5440    4.4430    2.0360 O.co2  72  GLU72      -0.2457
     19  OE2        8.2330    5.7560    1.5300 O.co2  72  GLU72      -0.2457
     20  N         15.2230    2.1720    0.0090 N.3   127  ARG127     -0.1245
     21  CA        13.8950    2.5100   -0.5020 C.3   127  ARG127      0.1563
     22  C         13.4690    1.7670   -1.7700 C.2   127  ARG127      0.2260
     23  O         12.2830    1.4890   -1.9680 O.2   127  ARG127     -0.2867
     24  CB        13.8500    4.0250   -0.7680 C.3   127  ARG127      0.0307
     25  CG        12.7120    4.5310   -1.6600 C.3   127  ARG127      0.0489
     26  CD        13.0080    5.9790   -2.0740 C.3   127  ARG127      0.2205
     27  NE        12.0840    6.5220   -3.0700 N.pl3 127  ARG127     -0.0865
     28  CZ        10.9340    7.1310   -2.7930 C.cat 127  ARG127      0.5346
     29  NH1       10.5460    7.2910   -1.5360 N.pl3 127  ARG127      0.1354
     30  NH2       10.1710    7.5910   -3.7800 N.pl3 127  ARG127      0.1354
     31  N          7.9110    3.1140   -7.1330 N.3   144  ASN144     -0.1225
     32  CA         6.8040    4.0510   -7.3210 C.3   144  ASN144      0.1785
     33  C          7.0940    5.1870   -8.3050 C.2   144  ASN144      0.2597
     34  O          6.5360    6.2830   -8.1950 O.2   144  ASN144     -0.2718
     35  CB         6.3080    4.6220   -5.9860 C.3   144  ASN144      0.1169
     36  CG         4.8520    5.0630   -6.0620 C.2   144  ASN144      0.2627
     37  OD1        4.0370    4.4120   -6.7280 O.2   144  ASN144     -0.2716
     38  ND2        4.5130    6.1590   -5.3820 N.am  144  ASN144     -0.0877
     39  N          7.9760    4.9040   -9.2610 N.am  145  ARG145     -0.1979
     40  CA         8.3280    5.8340  -10.3340 C.3   145  ARG145      0.1597
     41  C          8.4140    4.9660  -11.5850 C.2   145  ARG145      0.2287
     42  O          8.7270    5.4460  -12.6720 O.2   145  ARG145     -0.2864
     43  CB         9.6970    6.4870  -10.0840 C.3   145  ARG145      0.0334
     44  CG         9.7430    7.4520   -8.8990 C.3   145  ARG145      0.0492
     45  CD         8.8960    8.6900   -9.1510 C.3   145  ARG145      0.2205
     46  NE         9.0100    9.6470   -8.0520 N.pl3 145  ARG145     -0.0865
     47  CZ         8.5250    9.4480   -6.8320 C.cat 145  ARG145      0.5346
     48  NH1        7.8630    8.3320   -6.5520 N.pl3 145  ARG145      0.1354
     49  NH2        8.6860   10.3750   -5.8950 N.pl3 145  ARG145      0.1354
     50  N          2.0460    4.6670    2.0820 N.3   196  HIS196     -0.1226
     51  CA         3.4390    5.0700    2.2720 C.3   196  HIS196      0.1752
     52  C          3.5620    5.8530    3.5870 C.2   196  HIS196      0.2597
     53  O          2.5950    6.0060    4.3360 O.2   196  HIS196     -0.2718
     54  CB         3.8660    6.0250    1.1460 C.3   196  HIS196      0.0759
     55  CG         3.8340    5.4310   -0.2290 C.ar  196  HIS196      0.0818
     56  ND1        4.9780    5.1260   -0.9320 N.ar  196  HIS196     -0.2268
     57  CD2        2.8000    5.1300   -1.0510 C.ar  196  HIS196      0.1154
     58  CE1        4.6550    4.6650   -2.1270 C.ar  196  HIS196      0.1986
     59  NE2        3.3380    4.6560   -2.2250 N.ar  196  HIS196     -0.2212
     60  N          4.7680    6.3520    3.8380 N.am  197  SER197     -0.1938
     61  CA         5.0720    7.2090    4.9830 C.3   197  SER197      0.2055
     62  C          6.3080    7.9830    4.5130 C.2   197  SER197      0.2643
     63  O          7.0530    7.4820    3.6660 O.2   197  SER197     -0.2714
     64  CB         5.3800    6.3930    6.2480 C.3   197  SER197      0.2130
     65  OG         6.7040    5.8930    6.2710 O.3   197  SER197     -0.2179
     66  N          6.5450    9.1910    5.0240 N.am  198  TYR198     -0.1973
     67  CA         5.7210    9.8730    6.0220 C.3   198  TYR198      0.1639
     68  C          5.3350   11.2470    5.4640 C.2   198  TYR198      0.2290
     69  O          5.8360   11.6440    4.4120 O.2   198  TYR198     -0.2864
     70  CB         6.5430   10.0910    7.3000 C.3   198  TYR198      0.0560
     71  CG         7.7990   10.9090    7.0470 C.ar  198  TYR198     -0.0198
     72  CD1        8.9750   10.3060    6.6020 C.ar  198  TYR198     -0.0009
     73  CD2        7.7900   12.2970    7.2020 C.ar  198  TYR198     -0.0009
     74  CE1       10.1150   11.0640    6.3180 C.ar  198  TYR198      0.0417
     75  CE2        8.9140   13.0610    6.9210 C.ar  198  TYR198      0.0417
     76  CZ        10.0730   12.4430    6.4810 C.ar  198  TYR198      0.1957
     77  OH        11.1780   13.2130    6.2120 O.3   198  TYR198     -0.2866
     78  N         -3.5890   11.6710   -0.7280 N.3   203  LEU203     -0.1245
     79  CA        -3.4670   12.1790   -2.0930 C.3   203  LEU203      0.1561
     80  C         -4.2800   11.4440   -3.1470 C.2   203  LEU203      0.2260
     81  O         -4.5580   10.2570   -3.0090 O.2   203  LEU203     -0.2867
     82  CB        -1.9920   12.1290   -2.5150 C.3   203  LEU203      0.0270
     83  CG        -0.9710   13.1340   -1.9690 C.3   203  LEU203      0.0019
     84  CD1       -1.3910   13.6790   -0.6310 C.3   203  LEU203      0.0001
     85  CD2        0.3840   12.4490   -1.8890 C.3   203  LEU203      0.0001
     86  N         -1.6230   14.9440   -5.9870 N.3   243  ILE243     -0.1245
     87  CA        -0.1950   14.7630   -5.7490 C.3   243  ILE243      0.1561
     88  C          0.6350   15.9860   -6.1370 C.2   243  ILE243      0.2260
     89  O          1.3620   16.5370   -5.3160 O.2   243  ILE243     -0.2867
     90  CB         0.3450   13.5570   -6.5480 C.3   243  ILE243      0.0252
     91  CG1       -0.3260   12.2740   -6.0670 C.3   243  ILE243      0.0019
     92  CG2        1.8650   13.4670   -6.4010 C.3   243  ILE243      0.0019
     93  CD1       -0.2230   11.1440   -7.0610 C.3   243  ILE243      0.0001
     94  N          2.4360   17.8540   -2.9790 N.3   247  ILE247     -0.1231
     95  CA         3.8560   17.6520   -2.7310 C.3   247  ILE247      0.1692
     96  C          4.7160   18.1950   -3.8620 C.2   247  ILE247      0.2592
     97  O          5.4010   19.2060   -3.6920 O.2   247  ILE247     -0.2718
     98  CB         4.1940   16.1630   -2.4720 C.3   247  ILE247      0.0266
     99  CG1        3.5600   15.2660   -3.5340 C.3   247  ILE247      0.0019
    100  CG2        3.6940   15.7630   -1.0960 C.3   247  ILE247      0.0020
    101  CD1        3.7950   13.7870   -3.2850 C.3   247  ILE247      0.0001
    102  N          4.6740   17.5410   -5.0170 N.am  248  TYR248     -0.1976
    103  CA         5.4610   17.9750   -6.1640 C.3   248  TYR248      0.1639
    104  C          5.1790   17.0940   -7.3710 C.2   248  TYR248      0.2290
    105  O          4.4930   16.0750   -7.2650 O.2   248  TYR248     -0.2864
    106  CB         6.9560   17.9160   -5.8260 C.3   248  TYR248      0.0560
    107  CG         7.3650   16.6320   -5.1380 C.ar  248  TYR248     -0.0198
    108  CD1        7.1480   15.3930   -5.7420 C.ar  248  TYR248     -0.0009
    109  CD2        7.9430   16.6530   -3.8700 C.ar  248  TYR248     -0.0009
    110  CE1        7.4920   14.2070   -5.0970 C.ar  248  TYR248      0.0417
    111  CE2        8.2930   15.4720   -3.2160 C.ar  248  TYR248      0.0417
    112  CZ         8.0630   14.2540   -3.8350 C.ar  248  TYR248      0.1957
    113  OH         8.3960   13.0840   -3.1900 O.3   248  TYR248     -0.2866
    114  N          5.5640   14.2960   -9.7650 N.3   250  ALA250     -0.1245
    115  CA         6.1520   12.9680   -9.6340 C.3   250  ALA250      0.1562
    116  C          5.5460   12.0870  -10.7190 C.2   250  ALA250      0.2260
    117  O          4.3260   11.9460  -10.7990 O.2   250  ALA250     -0.2867
    118  CB         5.8510   12.3920   -8.2630 C.3   250  ALA250      0.0290
    119  N          3.8750    7.0610  -10.8990 N.3   253  GLY253     -0.1210
    120  CA         3.2880    6.6140   -9.6420 C.3   253  GLY253      0.1956
    121  C          2.1320    5.6450   -9.8270 C.2   253  GLY253      0.2613
    122  O          1.3890    5.7330  -10.8090 O.2   253  GLY253     -0.2717
    123  N          1.9510    4.7390   -8.8690 N.am  254  SER254     -0.1938
    124  CA         0.9060    3.7180   -8.9690 C.3   254  SER254      0.2055
    125  C         -0.5200    4.2230   -9.1340 C.2   254  SER254      0.2643
    126  O         -1.2630    3.7480  -10.0040 O.2   254  SER254     -0.2714
    127  CB         0.9730    2.7710   -7.7610 C.3   254  SER254      0.2130
    128  OG         0.6530    3.4220   -6.5440 O.3   254  SER254     -0.2179
    129  N         -0.8910    5.1850   -8.3000 N.am  255  ILE255     -0.1963
    130  CA        -2.2270    5.7710   -8.3030 C.3   255  ILE255      0.1727
    131  C         -2.6160    6.4250   -9.6280 C.2   255  ILE255      0.2616
    132  O         -3.7840    6.3990  -10.0220 O.2   255  ILE255     -0.2715
    133  CB        -2.3330    6.7890   -7.1440 C.3   255  ILE255      0.0290
    134  CG1       -3.1960    6.1950   -6.0350 C.3   255  ILE255      0.0022
    135  CG2       -2.8130    8.1280   -7.6480 C.3   255  ILE255      0.0023
    136  CD1       -2.6470    4.9170   -5.4660 C.3   255  ILE255      0.0001
    137  N         -1.6450    7.0300  -10.3050 N.am  256  ASP256     -0.1971
    138  CA        -1.9200    7.6620  -11.5880 C.3   256  ASP256      0.1709
    139  C         -2.2130    6.5590  -12.6050 C.2   256  ASP256      0.2293
    140  O         -3.1210    6.6800  -13.4240 O.2   256  ASP256     -0.2864
    141  CB        -0.7280    8.5190  -12.0270 C.3   256  ASP256      0.1436
    142  CG        -0.5780    9.7830  -11.1860 C.2   256  ASP256      0.3671
    143  OD1       -1.4690   10.0610  -10.3580 O.co2 256  ASP256     -0.2456
    144  OD2        0.4180   10.5090  -11.3590 O.co2 256  ASP256     -0.2456
    145  N         -3.4710    7.6130   -2.2950 N.3   268  THR268     -0.1218
    146  CA        -2.2340    7.2200   -1.6370 C.3   268  THR268      0.1862
    147  C         -2.2520    7.8680   -0.2560 C.2   268  THR268      0.2287
    148  O         -2.5430    9.0570   -0.1200 O.2   268  THR268     -0.2866
    149  CB        -0.9720    7.7010   -2.3830 C.3   268  THR268      0.1770
    150  OG1       -0.7680    6.8990   -3.5540 O.3   268  THR268     -0.2211
    151  CG2        0.2480    7.5850   -1.4840 C.3   268  THR268      0.0375
    152  N         -0.1020    8.8100    3.1830 N.3   270  GLU270     -0.1245
    153  CA         1.2540    9.0380    3.6830 C.3   270  GLU270      0.1567
    154  C          1.0370    9.1100    5.1940 C.2   270  GLU270      0.2260
    155  O          0.4920   10.0910    5.7100 O.2   270  GLU270     -0.2867
    156  CB         1.8300   10.3590    3.1700 C.3   270  GLU270      0.0388
    157  CG         2.1940   10.3450    1.6980 C.3   270  GLU270      0.1160
    158  CD         3.6870   10.2230    1.4700 C.2   270  GLU270      0.3649
    159  OE1        4.3260    9.3260    2.0630 O.co2 270  GLU270     -0.2457
    160  OE2        4.2260   11.0330    0.6870 O.co2 270  GLU270     -0.2457
    161  N         11.1280    8.0700    8.9310 N.3   279  PHE279     -0.1241
    162  CA        10.9710    6.6410    8.6850 C.3   279  PHE279      0.1605
    163  C         11.1970    5.7890    9.9260 C.2   279  PHE279      0.2264
    164  O         10.7200    4.6580   10.0000 O.2   279  PHE279     -0.2867
    165  CB        11.9290    6.1990    7.5770 C.3   279  PHE279      0.0534
    166  CG        11.7740    6.9780    6.3090 C.ar  279  PHE279     -0.0203
    167  CD1       10.5660    6.9680    5.6190 C.ar  279  PHE279     -0.0042
    168  CD2       12.8210    7.7550    5.8210 C.ar  279  PHE279     -0.0042
    169  CE1       10.3970    7.7180    4.4650 C.ar  279  PHE279     -0.0003
    170  CE2       12.6650    8.5080    4.6690 C.ar  279  PHE279     -0.0003
    171  CZ        11.4460    8.4920    3.9860 C.ar  279  PHE279     -0.0000
@<TRIPOS>BOND
     1   140   139    2
     2    42    41    2
     3   139   138    1
     4   141   138    1
     5   141   142    1
     6   138   137    1
     7    41    40    1
     8   144   142   ar
     9   142   143   ar
    10   119   120    1
    11   122   121    2
    12   117   116    2
    13   116   115    1
    14    40    43    1
    15    40    39    1
    16   137   131   am
    17    43    44    1
    18   132   131    2
    19   126   125    2
    20   121   120    1
    21   121   123   am
    22   114   115    1
    23   115   118    1
    24   131   130    1
    25    39    33   am
    26    45    44    1
    27    45    46    1
    28   125   124    1
    29   125   129   am
    30   124   123    1
    31   124   127    1
    32    33    34    2
    33    33    32    1
    34   130   129    1
    35   130   133    1
    36    46    47    2
    37   127   128    1
    38   135   133    1
    39   104   105    2
    40   104   103    1
    41    32    31    1
    42    32    35    1
    43   133   134    1
    44    93    91    1
    45    47    48    1
    46    47    49    1
    47    37    36    2
    48    90    92    1
    49    90    91    1
    50    90    87    1
    51   103   106    1
    52   103   102    1
    53    88    87    1
    54    88    89    2
    55    36    35    1
    56    36    38   am
    57   134   136    1
    58    86    87    1
    59   106   107    1
    60   108   107   ar
    61   108   110   ar
    62   107   109   ar
    63   110   112   ar
    64   102    96   am
    65   109   111   ar
    66    96    97    2
    67    96    95    1
    68   112   111   ar
    69   112   113    1
    70    30    28    1
    71    10     9   ar
    72    10     8   ar
    73   150   149    1
    74    99   101    1
    75    99    98    1
    76    80    81    2
    77    80    79    1
    78    27    28    2
    79    27    26    1
    80    94    95    1
    81     9     7   ar
    82    28    29    1
    83     8     6   ar
    84    95    98    1
    85    82    79    1
    86    82    83    1
    87    98   100    1
    88   149   146    1
    89   149   151    1
    90   145   146    1
    91    59    58   ar
    92    59    57   ar
    93    58    56   ar
    94    79    78    1
    95    26    25    1
    96    83    85    1
    97    83    84    1
    98    23    22    2
    99    22    21    1
   100     7     6   ar
   101    25    24    1
   102   146   147    1
   103     6     5    1
   104    57    55   ar
   105    56    55   ar
   106    24    21    1
   107     1     2    1
   108    21    20    1
   109     2     5    1
   110     2     3    1
   111   147   148    2
   112    55    54    1
   113   160   158   ar
   114     3     4    2
   115    54    51    1
   116   158   157    1
   117   158   159   ar
   118    19    17   ar
   119   157   156    1
   120    18    17   ar
   121    50    51    1
   122    51    52    1
   123    17    16    1
   124   156   153    1
   125   152   153    1
   126    16    15    1
   127    52    60   am
   128    52    53    2
   129    63    62    2
   130   153   154    1
   131    60    61    1
   132   171   169   ar
   133   171   170   ar
   134    15    12    1
   135    69    68    2
   136   169   167   ar
   137    62    61    1
   138    62    66   am
   139   170   168   ar
   140    11    12    1
   141    61    64    1
   142    66    67    1
   143   154   155    2
   144    12    13    1
   145    68    67    1
   146   167   166   ar
   147   168   166   ar
   148    14    13    2
   149    67    70    1
   150    77    76    1
   151    64    65    1
   152   166   165    1
   153    74    76   ar
   154    74    72   ar
   155    76    75   ar
   156    72    71   ar
   157    75    73   ar
   158    71    73   ar
   159    71    70    1
   160   165   162    1
   161   162   161    1
   162   162   163    1
   163   163   164    2
