@<TRIPOS>MOLECULE
tmp/1hdxA01.pdb
 83 78 0 0 0
SMALL
GASTEIGER

@<TRIPOS>ATOM
      1  N         -4.2170    7.9570  -24.6220 N.3    48  THR48      -0.1218
      2  CA        -3.5230    6.6700  -24.5710 C.3    48  THR48       0.1862
      3  C         -3.8280    6.0470  -23.1960 C.2    48  THR48       0.2287
      4  O         -4.2290    4.8760  -23.1400 O.2    48  THR48      -0.2866
      5  CB        -1.9650    6.8340  -24.7190 C.3    48  THR48       0.1770
      6  OG1       -1.6890    7.5100  -25.9380 O.3    48  THR48      -0.2211
      7  CG2       -1.2430    5.4970  -24.7260 C.3    48  THR48       0.0375
      8  N         -6.1000   -0.9620  -25.3870 N.3    57  LEU57      -0.1245
      9  CA        -4.6620   -1.1660  -25.4480 C.3    57  LEU57       0.1561
     10  C         -4.4360   -2.0710  -24.2640 C.2    57  LEU57       0.2260
     11  O         -4.9180   -1.7940  -23.1700 O.2    57  LEU57      -0.2867
     12  CB        -4.0130    0.1950  -25.3030 C.3    57  LEU57       0.0270
     13  CG        -2.5770    0.4730  -24.9630 C.3    57  LEU57       0.0019
     14  CD1       -1.6390    0.0200  -26.0450 C.3    57  LEU57       0.0001
     15  CD2       -2.4460    1.9710  -24.8110 C.3    57  LEU57       0.0001
     16  N          8.2090    8.7540  -22.9010 N.3    93  PHE93      -0.1241
     17  CA         7.6560    7.3880  -23.0690 C.3    93  PHE93       0.1605
     18  C          8.2940    6.4870  -24.1390 C.2    93  PHE93       0.2264
     19  O          7.8440    5.3490  -24.3440 O.2    93  PHE93      -0.2867
     20  CB         6.1340    7.4250  -23.3290 C.3    93  PHE93       0.0534
     21  CG         5.6240    7.8480  -24.7000 C.ar   93  PHE93      -0.0203
     22  CD1        5.6560    9.1860  -25.1010 C.ar   93  PHE93      -0.0042
     23  CD2        5.1330    6.8660  -25.5650 C.ar   93  PHE93      -0.0042
     24  CE1        5.1990    9.5220  -26.3680 C.ar   93  PHE93      -0.0003
     25  CE2        4.6810    7.2150  -26.8330 C.ar   93  PHE93      -0.0003
     26  CZ         4.7150    8.5450  -27.2350 C.ar   93  PHE93      -0.0000
     27  N         11.7650    5.0000  -32.8350 N.3   110  TYR110     -0.1241
     28  CA        11.1540    3.9600  -32.0140 C.3   110  TYR110      0.1605
     29  C         12.2250    2.9630  -31.5240 C.2   110  TYR110      0.2264
     30  O         12.3610    1.8190  -32.0040 O.2   110  TYR110     -0.2867
     31  CB        10.1080    3.3140  -32.8890 C.3   110  TYR110      0.0534
     32  CG         9.2780    2.2120  -32.2580 C.ar  110  TYR110     -0.0201
     33  CD1        8.2190    2.5320  -31.4150 C.ar  110  TYR110     -0.0009
     34  CD2        9.5450    0.8790  -32.5640 C.ar  110  TYR110     -0.0009
     35  CE1        7.4230    1.5270  -30.8790 C.ar  110  TYR110      0.0417
     36  CE2        8.7450   -0.1330  -32.0360 C.ar  110  TYR110      0.0417
     37  CZ         7.6910    0.2010  -31.1950 C.ar  110  TYR110      0.1957
     38  OH         6.8830   -0.8000  -30.6850 O.3   110  TYR110     -0.2866
     39  N          6.4590   -0.1720  -25.6040 N.3   116  LEU116     -0.1231
     40  CA         5.2820    0.1950  -26.3480 C.3   116  LEU116      0.1693
     41  C          4.7780   -0.9820  -27.1570 C.2   116  LEU116      0.2592
     42  O          3.5690   -1.2520  -27.1480 O.2   116  LEU116     -0.2718
     43  CB         5.5910    1.2910  -27.3370 C.3   116  LEU116      0.0284
     44  CG         6.2560    2.5620  -26.8610 C.3   116  LEU116      0.0019
     45  CD1        6.6090    3.4670  -28.0360 C.3   116  LEU116      0.0001
     46  CD2        5.2870    3.3260  -26.0330 C.3   116  LEU116      0.0001
     47  N          5.6940   -1.6420  -27.8700 N.am  117  GLY117     -0.1957
     48  CA         5.3240   -2.7460  -28.7520 C.3   117  GLY117      0.1869
     49  C          4.6780   -3.9200  -28.0630 C.2   117  GLY117      0.2309
     50  O          3.5290   -4.3050  -28.3270 O.2   117  GLY117     -0.2863
     51  N          4.1530    1.6010  -16.5420 N.3   140  PHE140     -0.1227
     52  CA         3.5080    1.8950  -17.8000 C.3   140  PHE140      0.1736
     53  C          4.4180    2.7550  -18.6270 C.2   140  PHE140      0.2595
     54  O          4.7170    3.9100  -18.3010 O.2   140  PHE140     -0.2718
     55  CB         2.2430    2.6680  -17.6210 C.3   140  PHE140      0.0547
     56  CG         1.4490    2.9060  -18.8830 C.ar  140  PHE140     -0.0202
     57  CD1        1.0100    1.8220  -19.6550 C.ar  140  PHE140     -0.0042
     58  CD2        1.0920    4.2160  -19.2230 C.ar  140  PHE140     -0.0042
     59  CE1        0.1930    2.0480  -20.7720 C.ar  140  PHE140     -0.0003
     60  CE2        0.2710    4.4330  -20.3450 C.ar  140  PHE140     -0.0003
     61  CZ        -0.1810    3.3510  -21.1190 C.ar  140  PHE140     -0.0000
     62  N          4.8300    2.1380  -19.7370 N.am  141  LEU141     -0.1980
     63  CA         5.7330    2.6970  -20.7190 C.3   141  LEU141      0.1596
     64  C          7.0500    3.1170  -20.0920 C.2   141  LEU141      0.2287
     65  O          7.8490    3.8020  -20.7150 O.2   141  LEU141     -0.2864
     66  CB         5.0610    3.8740  -21.4060 C.3   141  LEU141      0.0297
     67  CG         3.7210    3.5970  -22.1150 C.3   141  LEU141      0.0022
     68  CD1        3.2330    4.8640  -22.7620 C.3   141  LEU141      0.0001
     69  CD2        3.8660    2.5040  -23.1570 C.3   141  LEU141      0.0001
     70  N         -4.0850    5.7440  -32.0370 N.3   294  VAL294     -0.1245
     71  CA        -3.7730    4.3480  -31.7270 C.3   294  VAL294      0.1561
     72  C         -5.0390    3.4970  -31.8210 C.2   294  VAL294      0.2260
     73  O         -6.0010    3.7600  -31.0800 O.2   294  VAL294     -0.2867
     74  CB        -3.1400    4.2750  -30.2920 C.3   294  VAL294      0.0252
     75  CG1       -2.9040    2.8180  -29.8460 C.3   294  VAL294      0.0019
     76  CG2       -1.7930    5.0040  -30.3220 C.3   294  VAL294      0.0019
     77  N          5.6520    7.1460  -34.0330 N.3   318  VAL318     -0.1245
     78  CA         5.5170    7.3640  -32.5970 C.3   318  VAL318      0.1561
     79  C          6.1670    8.6920  -32.2210 C.2   318  VAL318      0.2260
     80  O          7.1820    9.0670  -32.8070 O.2   318  VAL318     -0.2867
     81  CB         6.1830    6.1300  -31.8880 C.3   318  VAL318      0.0252
     82  CG1        6.4890    6.3430  -30.4340 C.3   318  VAL318      0.0019
     83  CG2        5.1420    5.0090  -31.8640 C.3   318  VAL318      0.0019
@<TRIPOS>BOND
     1    77    78    1
     2    31    32    1
     3    31    28    1
     4    27    28    1
     5    80    79    2
     6    78    79    1
     7    78    81    1
     8    34    32   ar
     9    34    36   ar
    10    32    33   ar
    11    70    71    1
    12    36    37   ar
    13    28    29    1
    14    30    29    2
    15    81    83    1
    16    81    82    1
    17    72    71    1
    18    72    73    2
    19    71    74    1
    20    33    35   ar
    21    37    35   ar
    22    37    38    1
    23    76    74    1
    24    74    75    1
    25    48    49    1
    26    48    47    1
    27    50    49    2
    28    45    44    1
    29    47    41   am
    30    43    44    1
    31    43    40    1
    32    26    25   ar
    33    26    24   ar
    34    41    42    2
    35    41    40    1
    36    44    46    1
    37    25    23   ar
    38    24    22   ar
    39    40    39    1
    40    14    13    1
    41     6     5    1
    42    23    21   ar
    43     9     8    1
    44     9    12    1
    45     9    10    1
    46    12    13    1
    47    22    21   ar
    48    13    15    1
    49     7     5    1
    50     5     2    1
    51    21    20    1
    52     1     2    1
    53     2     3    1
    54    19    18    2
    55    10    11    2
    56    18    17    1
    57    20    17    1
    58     3     4    2
    59    69    67    1
    60    17    16    1
    61    68    67    1
    62    67    66    1
    63    66    63    1
    64    61    59   ar
    65    61    60   ar
    66    59    57   ar
    67    63    64    1
    68    63    62    1
    69    65    64    2
    70    60    58   ar
    71    62    53   am
    72    57    56   ar
    73    58    56   ar
    74    56    55    1
    75    53    54    2
    76    53    52    1
    77    52    55    1
    78    52    51    1
