@<TRIPOS>MOLECULE
tmp/1he2A01.pdb
 155 153 0 0 0
SMALL
GASTEIGER

@<TRIPOS>ATOM
      1  N         25.7110   -8.1110   10.9640 N.3    77  THR77      -0.1203
      2  CA        26.7350   -9.0960   10.7870 C.3    77  THR77       0.1994
      3  C         27.0960   -9.4830    9.3360 C.2    77  THR77       0.2618
      4  O         27.7470  -10.5170    9.1250 O.2    77  THR77      -0.2717
      5  CB        26.2680  -10.3930   11.5200 C.3    77  THR77       0.1784
      6  OG1       25.1230  -10.9190   10.8570 O.3    77  THR77      -0.2211
      7  CG2       25.9180  -10.0490   12.9700 C.3    77  THR77       0.0376
      8  N         26.6650   -8.6530    8.3720 N.am   78  ARG78      -0.1965
      9  CA        26.8970   -8.8920    6.9300 C.3    78  ARG78       0.1729
     10  C         26.3890  -10.3010    6.6400 C.2    78  ARG78       0.2616
     11  O         25.1930  -10.5480    6.9080 O.2    78  ARG78      -0.2715
     12  CB        28.3440   -8.6290    6.5360 C.3    78  ARG78       0.0348
     13  CG        28.6230   -7.1290    6.5820 C.3    78  ARG78       0.0492
     14  CD        29.9370   -6.8180    5.9320 C.3    78  ARG78       0.2205
     15  NE        30.2050   -5.4210    5.9250 N.pl3  78  ARG78      -0.0865
     16  CZ        29.7300   -4.5310    5.0470 C.cat  78  ARG78       0.5346
     17  NH1       28.9330   -4.9240    4.0700 N.pl3  78  ARG78       0.1354
     18  NH2       30.0820   -3.2690    5.1910 N.pl3  78  ARG78       0.1354
     19  N         27.1720  -11.2200    6.1140 N.am   79  ASN79      -0.1972
     20  CA        26.6070  -12.5020    5.7110 C.3    79  ASN79       0.1688
     21  C         26.9030  -13.5900    6.7510 C.2    79  ASN79       0.2292
     22  O         26.6280  -14.7750    6.4970 O.2    79  ASN79      -0.2864
     23  CB        27.1240  -12.9390    4.3250 C.3    79  ASN79       0.1181
     24  CG        26.6250  -11.9970    3.2350 C.2    79  ASN79       0.2629
     25  OD1       25.5270  -11.4360    3.2630 O.2    79  ASN79      -0.2716
     26  ND2       27.4920  -11.8350    2.2330 N.am   79  ASN79      -0.0877
     27  N         26.0740  -15.6190    9.8250 N.3    81  LEU81      -0.1245
     28  CA        24.8540  -16.0060   10.5370 C.3    81  LEU81       0.1561
     29  C         25.1260  -16.8000   11.8000 C.2    81  LEU81       0.2260
     30  O         24.2770  -17.3840   12.4390 O.2    81  LEU81      -0.2867
     31  CB        23.9560  -16.8220    9.6000 C.3    81  LEU81       0.0270
     32  CG        23.5230  -16.0670    8.3260 C.3    81  LEU81       0.0019
     33  CD1       22.6770  -16.9900    7.4600 C.3    81  LEU81       0.0001
     34  CD2       22.8020  -14.7630    8.6690 C.3    81  LEU81       0.0001
     35  N         14.6820   -6.3960   13.2990 N.3   111  SER111     -0.1202
     36  CA        13.9900   -7.0220   12.2130 C.3   111  SER111      0.2020
     37  C         12.5440   -7.3240   12.5880 C.2   111  SER111      0.2619
     38  O         12.1920   -7.4170   13.7420 O.2   111  SER111     -0.2717
     39  CB        14.6180   -8.3440   11.7940 C.3   111  SER111      0.2103
     40  OG        14.0330   -9.4730   12.3410 O.3   111  SER111     -0.2182
     41  N         11.7410   -7.4760   11.5450 N.am  112  ALA112     -0.1965
     42  CA        10.3290   -7.8050   11.6840 C.3   112  ALA112      0.1728
     43  C         10.1350   -9.1450   12.3560 C.2   112  ALA112      0.2616
     44  O          9.0140   -9.4280   12.8090 O.2   112  ALA112     -0.2715
     45  CB         9.6380   -7.8040   10.3350 C.3   112  ALA112      0.0334
     46  N         11.1420   -9.9890   12.4770 N.am  113  PHE113     -0.1974
     47  CA        10.9370  -11.2320   13.1970 C.3   113  PHE113      0.1639
     48  C         10.5810  -10.9470   14.6430 C.2   113  PHE113      0.2290
     49  O          9.9870  -11.8170   15.2820 O.2   113  PHE113     -0.2864
     50  CB        12.1810  -12.1070   13.0950 C.3   113  PHE113      0.0560
     51  CG        12.3720  -12.7310   11.7150 C.ar  113  PHE113     -0.0200
     52  CD1       11.3620  -13.4170   11.0540 C.ar  113  PHE113     -0.0042
     53  CD2       13.5910  -12.6210   11.0870 C.ar  113  PHE113     -0.0042
     54  CE1       11.5700  -13.9710    9.8030 C.ar  113  PHE113     -0.0003
     55  CE2       13.8200  -13.1560    9.8370 C.ar  113  PHE113     -0.0003
     56  CZ        12.8040  -13.8340    9.1970 C.ar  113  PHE113     -0.0000
     57  N          6.7550  -10.6440   14.2720 N.3   116  TRP116     -0.1241
     58  CA         6.0200  -11.7930   13.7000 C.3   116  TRP116      0.1605
     59  C          6.0140  -12.9770   14.6470 C.2   116  TRP116      0.2264
     60  O          6.6180  -13.0160   15.7410 O.2   116  TRP116     -0.2867
     61  CB         6.6760  -12.0330   12.3520 C.3   116  TRP116      0.0550
     62  CG         6.4490  -11.0510   11.2570 C.ar  116  TRP116      0.0003
     63  CD1        5.5320  -10.0730   11.1170 C.ar  116  TRP116      0.0946
     64  CD2        7.2460  -10.9880   10.0700 C.ar  116  TRP116      0.0152
     65  NE1        5.6900   -9.3960    9.9290 N.ar  116  TRP116     -0.2442
     66  CE2        6.7430   -9.9490    9.2730 C.ar  116  TRP116      0.0810
     67  CE3        8.3290  -11.7220    9.6340 C.ar  116  TRP116      0.0012
     68  CZ2        7.2730   -9.6020    8.0430 C.ar  116  TRP116      0.0191
     69  CZ3        8.8490  -11.3610    8.4000 C.ar  116  TRP116      0.0001
     70  CH2        8.3250  -10.3290    7.6410 C.ar  116  TRP116      0.0015
     71  N         13.1850  -18.5440   10.0660 N.3   122  PRO122     -0.2116
     72  CA        13.9890  -19.5850    9.4150 C.3   122  PRO122      0.1372
     73  C         15.1330  -20.0230   10.3200 C.2   122  PRO122      0.2244
     74  O         15.7980  -19.1510   10.8870 O.2   122  PRO122     -0.2868
     75  CB        14.5660  -18.8970    8.1740 C.3   122  PRO122      0.0268
     76  CG        13.4930  -17.9060    7.8600 C.3   122  PRO122      0.0207
     77  CD        13.0130  -17.3860    9.1780 C.3   122  PRO122      0.0892
     78  N         18.1560  -20.7600    9.9090 N.3   124  ARG124     -0.1231
     79  CA        19.4690  -20.2040    9.6410 C.3   124  ARG124      0.1694
     80  C         19.5680  -18.7800   10.1690 C.2   124  ARG124      0.2591
     81  O         20.7190  -18.3410   10.3600 O.2   124  ARG124     -0.2718
     82  CB        19.7140  -20.3120    8.1410 C.3   124  ARG124      0.0321
     83  CG        19.1310  -19.2840    7.2240 C.3   124  ARG124      0.0489
     84  CD        19.3270  -19.7540    5.7820 C.3   124  ARG124      0.2205
     85  NE        20.3700  -18.9650    5.1190 N.pl3 124  ARG124     -0.0865
     86  CZ        21.5170  -19.4740    4.6880 C.cat 124  ARG124      0.5346
     87  NH1       21.7720  -20.7680    4.8480 N.pl3 124  ARG124      0.1354
     88  NH2       22.4130  -18.6930    4.0970 N.pl3 124  ARG124      0.1354
     89  N         18.4490  -18.1110   10.3940 N.am  125  LEU125     -0.1980
     90  CA        18.4780  -16.7340   10.9200 C.3   125  LEU125      0.1596
     91  C         18.2110  -16.6320   12.4120 C.2   125  LEU125      0.2287
     92  O         18.1660  -15.5440   12.9620 O.2   125  LEU125     -0.2864
     93  CB        17.4380  -15.8710   10.1990 C.3   125  LEU125      0.0297
     94  CG        17.6770  -15.8090    8.6760 C.3   125  LEU125      0.0022
     95  CD1       16.6160  -14.9600    7.9840 C.3   125  LEU125      0.0001
     96  CD2       19.0420  -15.2530    8.3160 C.3   125  LEU125      0.0001
     97  N         21.1810  -14.8600   14.7380 N.3   128  VAL128     -0.1231
     98  CA        21.1910  -13.4170   14.5910 C.3   128  VAL128      0.1692
     99  C         19.9330  -12.8210   15.2410 C.2   128  VAL128      0.2592
    100  O         20.0340  -11.8120   15.9430 O.2   128  VAL128     -0.2718
    101  CB        21.3300  -13.0220   13.1010 C.3   128  VAL128      0.0266
    102  CG1       21.0590  -11.5450   12.9770 C.3   128  VAL128      0.0020
    103  CG2       22.7120  -13.4220   12.5970 C.3   128  VAL128      0.0020
    104  N         18.7790  -13.4370   15.0380 N.am  129  THR129     -0.1953
    105  CA        17.5260  -12.9760   15.6630 C.3   129  THR129      0.1897
    106  C         17.6680  -12.9890   17.1630 C.2   129  THR129      0.2313
    107  O         17.2200  -12.0340   17.8160 O.2   129  THR129     -0.2863
    108  CB        16.3410  -13.8290   15.1660 C.3   129  THR129      0.1794
    109  OG1       16.2370  -13.6640   13.7280 O.3   129  THR129     -0.2208
    110  CG2       15.0220  -13.3830   15.7220 C.3   129  THR129      0.0378
    111  N         19.4290   -9.8810   17.9800 N.3   132  HIS132     -0.1241
    112  CA        18.5250   -8.7510   17.8430 C.3   132  HIS132      0.1621
    113  C         17.6290   -8.5840   19.0540 C.2   132  HIS132      0.2264
    114  O         17.3950   -7.4660   19.5220 O.2   132  HIS132     -0.2867
    115  CB        17.6650   -8.9290   16.5810 C.3   132  HIS132      0.0745
    116  CG        18.3040   -8.5630   15.2730 C.ar  132  HIS132      0.0817
    117  ND1       17.9790   -9.2190   14.0960 N.ar  132  HIS132     -0.2268
    118  CD2       19.2150   -7.6280   14.9550 C.ar  132  HIS132      0.1154
    119  CE1       18.6790   -8.6750   13.1250 C.ar  132  HIS132      0.1986
    120  NE2       19.4360   -7.7220   13.6040 N.ar  132  HIS132     -0.2212
    121  N         12.3520   -3.9530   10.2990 N.3   151  PRO151     -0.2103
    122  CA        11.9870   -4.1210    8.8780 C.3   151  PRO151      0.1489
    123  C         11.8510   -5.5670    8.3960 C.2   151  PRO151      0.2418
    124  O         12.4520   -6.4610    8.9860 O.2   151  PRO151     -0.2734
    125  CB        13.1690   -3.4850    8.1690 C.3   151  PRO151      0.0282
    126  CG        14.3310   -3.7450    9.0950 C.3   151  PRO151      0.0208
    127  CD        13.7530   -3.5810   10.4640 C.3   151  PRO151      0.0893
    128  N         11.1270   -5.7790    7.3400 N.am  152  PRO152     -0.2718
    129  CA        11.0690   -7.0620    6.6230 C.3   152  PRO152      0.1535
    130  C         12.2960   -7.1330    5.7510 C.2   152  PRO152      0.2598
    131  O         13.3170   -6.5300    6.0250 O.2   152  PRO152     -0.2715
    132  CB         9.7300   -6.9480    5.8850 C.3   152  PRO152      0.0310
    133  CG         9.7440   -5.5130    5.4730 C.3   152  PRO152      0.0237
    134  CD        10.2830   -4.7510    6.6640 C.3   152  PRO152      0.0939
    135  N         12.2480   -7.8950    4.6650 N.am  153  HIS153     -0.1974
    136  CA        13.3590   -8.0090    3.7320 C.3   153  HIS153      0.1656
    137  C         13.7940   -6.6440    3.2590 C.2   153  HIS153      0.2291
    138  O         12.9560   -5.8610    2.8650 O.2   153  HIS153     -0.2864
    139  CB        12.9380   -8.8180    2.5240 C.3   153  HIS153      0.0771
    140  CG        14.0170   -8.9100    1.5010 C.ar  153  HIS153      0.0820
    141  ND1       15.2240   -9.5300    1.7560 N.ar  153  HIS153     -0.2267
    142  CD2       14.0910   -8.4710    0.2240 C.ar  153  HIS153      0.1154
    143  CE1       16.0050   -9.4700    0.6690 C.ar  153  HIS153      0.1986
    144  NE2       15.3230   -8.8250   -0.2690 N.ar  153  HIS153     -0.2212
    145  N          6.1070   -7.3430    2.4330 N.3   174  ARG174     -0.1245
    146  CA         7.1850   -7.9010    3.2660 C.3   174  ARG174      0.1563
    147  C          8.5340   -7.4330    2.7050 C.2   174  ARG174      0.2260
    148  O          9.5540   -8.1300    2.8130 O.2   174  ARG174     -0.2867
    149  CB         7.0740   -9.4210    3.3820 C.3   174  ARG174      0.0307
    150  CG         5.7970   -9.7970    4.2030 C.3   174  ARG174      0.0489
    151  CD         5.8770  -11.2070    4.7830 C.3   174  ARG174      0.2205
    152  NE         5.0620  -11.3520    5.9690 N.pl3 174  ARG174     -0.0865
    153  CZ         4.9120  -11.9580    7.1080 C.cat 174  ARG174      0.5346
    154  NH1        5.7790  -12.8770    7.5550 N.pl3 174  ARG174      0.1354
    155  NH2        3.8680  -11.6930    7.9140 N.pl3 174  ARG174      0.1354
@<TRIPOS>BOND
     1   144   142   ar
     2   144   143   ar
     3   142   140   ar
     4   143   141   ar
     5   140   141   ar
     6   140   139    1
     7    26    24   am
     8   145   146    1
     9   139   136    1
    10   147   148    2
    11   147   146    1
    12   138   137    2
    13    24    25    2
    14    24    23    1
    15   137   136    1
    16   146   149    1
    17   149   150    1
    18   136   135    1
    19    17    16    1
    20    88    86    1
    21   150   151    1
    22    23    20    1
    23   135   130   am
    24    86    87    1
    25    86    85    2
    26   151   152    1
    27    16    18    1
    28    16    15    2
    29    85    84    1
    30   133   132    1
    31   133   134    1
    32    20    19    1
    33    20    21    1
    34   130   131    2
    35   130   129    1
    36    84    83    1
    37   132   129    1
    38    15    14    1
    39    14    13    1
    40   152   153    2
    41    19    10   am
    42    22    21    2
    43    12    13    1
    44    12     9    1
    45   129   128    1
    46    10    11    2
    47    10     9    1
    48   134   128    1
    49     9     8    1
    50   153   154    1
    51   153   155    1
    52    83    82    1
    53   128   123   am
    54    33    32    1
    55    70    68   ar
    56    70    69   ar
    57    76    75    1
    58    76    77    1
    59    95    94    1
    60    68    66   ar
    61    82    79    1
    62   125   122    1
    63   125   126    1
    64    75    72    1
    65    96    94    1
    66    32    34    1
    67    32    31    1
    68     8     3   am
    69   123   122    1
    70   123   124    2
    71    69    67   ar
    72    94    93    1
    73   122   121    1
    74   126   127    1
    75     4     3    2
    76    77    71    1
    77    56    54   ar
    78    56    55   ar
    79    66    65   ar
    80    66    64   ar
    81     3     2    1
    82    72    71    1
    83    72    73    1
    84    31    28    1
    85    67    64   ar
    86    79    78    1
    87    79    80    1
    88    54    52   ar
    89    27    28    1
    90    55    53   ar
    91    65    63   ar
    92    64    62   ar
    93    80    81    2
    94    80    89   am
    95    93    90    1
    96   121   127    1
    97    73    74    2
    98    45    42    1
    99    89    90    1
   100    28    29    1
   101     2     1    1
   102     2     5    1
   103     6     5    1
   104    90    91    1
   105    52    51   ar
   106    53    51   ar
   107    63    62   ar
   108    62    61    1
   109     5     7    1
   110    41    42    1
   111    41    37   am
   112    42    43    1
   113    51    50    1
   114    39    36    1
   115    39    40    1
   116    29    30    2
   117    36    37    1
   118    36    35    1
   119    61    58    1
   120    43    46   am
   121    43    44    2
   122    91    92    2
   123    46    47    1
   124    37    38    2
   125   103   101    1
   126   102   101    1
   127    50    47    1
   128   101    98    1
   129   119   120   ar
   130   119   117   ar
   131    47    48    1
   132   120   118   ar
   133    58    57    1
   134    58    59    1
   135   109   108    1
   136   117   116   ar
   137    98    97    1
   138    98    99    1
   139    48    49    2
   140    59    60    2
   141   118   116   ar
   142   104    99   am
   143   104   105    1
   144   108   105    1
   145   108   110    1
   146    99   100    2
   147   116   115    1
   148   105   106    1
   149   115   112    1
   150   106   107    2
   151   112   111    1
   152   112   113    1
   153   113   114    2
