@<TRIPOS>MOLECULE
tmp/1he3A01.pdb
 167 166 0 0 0
SMALL
GASTEIGER

@<TRIPOS>ATOM
      1  N         25.0030   -4.6850   12.2010 N.3    75  GLY75      -0.1210
      2  CA        24.5690   -5.9610   11.6550 C.3    75  GLY75       0.1956
      3  C         25.7970   -6.8470   11.4920 C.2    75  GLY75       0.2613
      4  O         26.9040   -6.3550   11.7790 O.2    75  GLY75      -0.2717
      5  N         25.5490   -8.0650   11.0430 N.am   76  THR76      -0.1938
      6  CA        26.6370   -9.0220   10.9240 C.3    76  THR76       0.2028
      7  C         27.0200   -9.4050    9.4960 C.2    76  THR76       0.2642
      8  O         27.7030  -10.4210    9.2670 O.2    76  THR76      -0.2714
      9  CB        26.2030  -10.3060   11.6620 C.3    76  THR76       0.1808
     10  OG1       25.0610  -10.8840   10.9910 O.3    76  THR76      -0.2208
     11  CG2       25.8340   -9.9680   13.1110 C.3    76  THR76       0.0379
     12  N         26.5770   -8.5740    8.5570 N.am   77  ARG77      -0.1963
     13  CA        26.6830   -8.7820    7.0940 C.3    77  ARG77       0.1729
     14  C         26.2170  -10.1990    6.7860 C.2    77  ARG77       0.2616
     15  O         25.0510  -10.5110    7.0300 O.2    77  ARG77      -0.2715
     16  CB        28.0810   -8.4980    6.5710 C.3    77  ARG77       0.0348
     17  CG        28.5030   -7.0400    6.7770 C.3    77  ARG77       0.0492
     18  CD        29.8330   -6.7840    6.0640 C.3    77  ARG77       0.2205
     19  NE        30.0280   -5.3590    5.9690 N.pl3  77  ARG77      -0.0865
     20  CZ        29.5610   -4.4820    5.0800 C.cat  77  ARG77       0.5346
     21  NH1       28.7780   -4.8640    4.0680 N.pl3  77  ARG77       0.1354
     22  NH2       29.9500   -3.2080    5.2980 N.pl3  77  ARG77       0.1354
     23  N         27.0600  -11.0820    6.2660 N.am   78  ASN78      -0.1958
     24  CA        26.5580  -12.3910    5.8790 C.3    78  ASN78       0.1819
     25  C         26.8100  -13.4200    6.9630 C.2    78  ASN78       0.2621
     26  O         26.6020  -14.6350    6.7460 O.2    78  ASN78      -0.2715
     27  CB        27.2280  -12.8150    4.5660 C.3    78  ASN78       0.1195
     28  CG        26.8280  -11.9140    3.4180 C.2    78  ASN78       0.2630
     29  OD1       25.7200  -11.3490    3.4630 O.2    78  ASN78      -0.2716
     30  ND2       27.7250  -11.8150    2.4440 N.am   78  ASN78      -0.0877
     31  N         27.2650  -12.9450    8.1360 N.am   79  ASP79      -0.1957
     32  CA        27.6380  -13.9290    9.1550 C.3    79  ASP79       0.1840
     33  C         26.4080  -14.3050    9.9770 C.2    79  ASP79       0.2621
     34  O         25.8550  -13.3790   10.5930 O.2    79  ASP79      -0.2715
     35  CB        28.7520  -13.3720   10.0280 C.3    79  ASP79       0.1450
     36  CG        29.3440  -14.3880   10.9950 C.2    79  ASP79       0.3671
     37  OD1       28.8400  -15.5130   11.1830 O.co2  79  ASP79      -0.2456
     38  OD2       30.3880  -14.0440   11.6180 O.co2  79  ASP79      -0.2456
     39  N         26.0080  -15.5780    9.9850 N.am   80  LEU80      -0.1977
     40  CA        24.8180  -15.9890   10.7440 C.3    80  LEU80       0.1596
     41  C         25.1750  -16.7230   12.0210 C.2    80  LEU80       0.2287
     42  O         24.3040  -17.2920   12.6780 O.2    80  LEU80      -0.2864
     43  CB        23.9410  -16.8370    9.8210 C.3    80  LEU80       0.0297
     44  CG        23.5290  -16.0600    8.5550 C.3    80  LEU80       0.0022
     45  CD1       22.6230  -16.9180    7.6720 C.3    80  LEU80       0.0001
     46  CD2       22.8640  -14.7100    8.8860 C.3    80  LEU80       0.0001
     47  N         14.6590   -6.2030   13.3890 N.3   110  SER110     -0.1202
     48  CA        14.0160   -6.8740   12.2690 C.3   110  SER110      0.2020
     49  C         12.5630   -7.1700   12.5930 C.2   110  SER110      0.2619
     50  O         12.1970   -7.2470   13.7710 O.2   110  SER110     -0.2717
     51  CB        14.7680   -8.1630   11.8850 C.3   110  SER110      0.2103
     52  OG        14.0540   -9.2590   12.3740 O.3   110  SER110     -0.2182
     53  N         11.7670   -7.3170   11.5600 N.am  111  ALA111     -0.1965
     54  CA        10.3480   -7.6340   11.7020 C.3   111  ALA111      0.1728
     55  C         10.1560   -8.9640   12.4090 C.2   111  ALA111      0.2616
     56  O          9.0610   -9.2290   12.9050 O.2   111  ALA111     -0.2715
     57  CB         9.6650   -7.6510   10.3310 C.3   111  ALA111      0.0334
     58  N         11.1510   -9.8400   12.4920 N.am  112  PHE112     -0.1974
     59  CA        10.9740  -11.0970   13.2420 C.3   112  PHE112      0.1639
     60  C         10.5900  -10.8220   14.6790 C.2   112  PHE112      0.2290
     61  O          9.9590  -11.6410   15.3340 O.2   112  PHE112     -0.2864
     62  CB        12.2500  -11.9630   13.1970 C.3   112  PHE112      0.0560
     63  CG        12.4490  -12.5710   11.8160 C.ar  112  PHE112     -0.0200
     64  CD1       11.4640  -13.2960   11.1720 C.ar  112  PHE112     -0.0042
     65  CD2       13.6500  -12.3940   11.1780 C.ar  112  PHE112     -0.0042
     66  CE1       11.6720  -13.8360    9.9140 C.ar  112  PHE112     -0.0003
     67  CE2       13.8670  -12.9230    9.9250 C.ar  112  PHE112     -0.0003
     68  CZ        12.8890  -13.6390    9.2810 C.ar  112  PHE112     -0.0000
     69  N          6.7360  -10.4040   14.2950 N.3   115  TRP115     -0.1241
     70  CA         6.0080  -11.5550   13.7380 C.3   115  TRP115      0.1605
     71  C          6.0060  -12.6900   14.7510 C.2   115  TRP115      0.2264
     72  O          6.6320  -12.6130   15.8110 O.2   115  TRP115     -0.2867
     73  CB         6.6400  -11.9210   12.3990 C.3   115  TRP115      0.0550
     74  CG         6.4620  -10.9200   11.2840 C.ar  115  TRP115      0.0003
     75  CD1        5.5140   -9.9460   11.1600 C.ar  115  TRP115      0.0946
     76  CD2        7.2840  -10.8000   10.1070 C.ar  115  TRP115      0.0152
     77  NE1        5.6940   -9.2350    9.9870 N.ar  115  TRP115     -0.2442
     78  CE2        6.7730   -9.7450    9.3320 C.ar  115  TRP115      0.0810
     79  CE3        8.4020  -11.4910    9.6400 C.ar  115  TRP115      0.0012
     80  CZ2        7.3270   -9.3630    8.1370 C.ar  115  TRP115      0.0191
     81  CZ3        8.9700  -11.1170    8.4400 C.ar  115  TRP115      0.0001
     82  CH2        8.4130  -10.0580    7.7170 C.ar  115  TRP115      0.0015
     83  N         18.2150  -20.5910   10.0550 N.3   123  ARG123     -0.1231
     84  CA        19.5650  -20.0530    9.9040 C.3   123  ARG123      0.1694
     85  C         19.6240  -18.6090   10.3470 C.2   123  ARG123      0.2591
     86  O         20.7180  -18.0770   10.5450 O.2   123  ARG123     -0.2718
     87  CB        20.0070  -20.1750    8.4430 C.3   123  ARG123      0.0321
     88  CG        19.0670  -19.3080    7.6000 C.3   123  ARG123      0.0489
     89  CD        18.9800  -19.8370    6.1780 C.3   123  ARG123      0.2205
     90  NE        18.2560  -18.9250    5.2980 N.pl3 123  ARG123     -0.0865
     91  CZ        18.4560  -18.8260    3.9910 C.cat 123  ARG123      0.5346
     92  NH1       19.3650  -19.5870    3.3960 N.pl3 123  ARG123      0.1354
     93  NH2       17.7480  -17.9660    3.2710 N.pl3 123  ARG123      0.1354
     94  N         18.4830  -17.9360   10.5200 N.am  124  LEU124     -0.1980
     95  CA        18.4900  -16.5890   11.0770 C.3   124  LEU124      0.1596
     96  C         18.2220  -16.5350   12.5730 C.2   124  LEU124      0.2287
     97  O         18.1520  -15.4440   13.1600 O.2   124  LEU124     -0.2864
     98  CB        17.4220  -15.7310   10.3650 C.3   124  LEU124      0.0297
     99  CG        17.7320  -15.5170    8.8850 C.3   124  LEU124      0.0022
    100  CD1       16.6430  -14.7640    8.1430 C.3   124  LEU124      0.0001
    101  CD2       19.0610  -14.7640    8.7540 C.3   124  LEU124      0.0001
    102  N         21.1650  -14.7210   14.8940 N.3   127  VAL127     -0.1231
    103  CA        21.1820  -13.2750   14.7400 C.3   127  VAL127      0.1692
    104  C         19.9360  -12.6890   15.3730 C.2   127  VAL127      0.2592
    105  O         20.0150  -11.6570   16.0780 O.2   127  VAL127     -0.2718
    106  CB        21.3000  -12.9010   13.2500 C.3   127  VAL127      0.0266
    107  CG1       20.9950  -11.4430   13.0420 C.3   127  VAL127      0.0020
    108  CG2       22.7050  -13.2740   12.7840 C.3   127  VAL127      0.0020
    109  N         18.7860  -13.3010   15.1630 N.am  128  THR128     -0.1953
    110  CA        17.5480  -12.8050   15.7640 C.3   128  THR128      0.1897
    111  C         17.6680  -12.8380   17.2920 C.2   128  THR128      0.2313
    112  O         17.1890  -11.8640   17.9030 O.2   128  THR128     -0.2863
    113  CB        16.3410  -13.6220   15.2800 C.3   128  THR128      0.1794
    114  OG1       16.2570  -13.4930   13.8320 O.3   128  THR128     -0.2208
    115  CG2       15.0200  -13.1190   15.8220 C.3   128  THR128      0.0378
    116  N         19.3670   -9.7660   18.0820 N.3   131  HIS131     -0.1241
    117  CA        18.4590   -8.6350   17.9400 C.3   131  HIS131      0.1621
    118  C         17.5500   -8.4790   19.1500 C.2   131  HIS131      0.2264
    119  O         17.2800   -7.3470   19.5930 O.2   131  HIS131     -0.2867
    120  CB        17.5780   -8.7750   16.6810 C.3   131  HIS131      0.0745
    121  CG        18.2480   -8.3660   15.4030 C.ar  131  HIS131      0.0817
    122  ND1       17.9550   -9.0260   14.2230 N.ar  131  HIS131     -0.2268
    123  CD2       19.1640   -7.4190   15.0980 C.ar  131  HIS131      0.1154
    124  CE1       18.6510   -8.5060   13.2340 C.ar  131  HIS131      0.1986
    125  NE2       19.4070   -7.5150   13.7560 N.ar  131  HIS131     -0.2212
    126  N         12.3090   -3.8120   10.3550 N.3   150  PRO150     -0.2103
    127  CA        11.9370   -3.9840    8.9570 C.3   150  PRO150      0.1489
    128  C         11.8510   -5.4450    8.4980 C.2   150  PRO150      0.2418
    129  O         12.4780   -6.3300    9.0620 O.2   150  PRO150     -0.2734
    130  CB        13.1150   -3.3150    8.2320 C.3   150  PRO150      0.0282
    131  CG        14.2840   -3.6520    9.1430 C.3   150  PRO150      0.0208
    132  CD        13.7210   -3.4580   10.5120 C.3   150  PRO150      0.0893
    133  N         11.0980   -5.6450    7.4300 N.am  151  PRO151     -0.2718
    134  CA        11.0510   -6.9490    6.7370 C.3   151  PRO151      0.1535
    135  C         12.2720   -7.0290    5.8330 C.2   151  PRO151      0.2598
    136  O         13.3000   -6.3810    6.1170 O.2   151  PRO151     -0.2715
    137  CB         9.7380   -6.8910    5.9640 C.3   151  PRO151      0.0310
    138  CG         9.6910   -5.4220    5.5590 C.3   151  PRO151      0.0237
    139  CD        10.2520   -4.6370    6.7420 C.3   151  PRO151      0.0939
    140  N         12.1650   -7.8040    4.7570 N.am  152  HIS152     -0.1974
    141  CA        13.3060   -7.9220    3.8760 C.3   152  HIS152      0.1656
    142  C         13.7620   -6.5770    3.3510 C.2   152  HIS152      0.2291
    143  O         12.8870   -5.8200    2.9290 O.2   152  HIS152     -0.2864
    144  CB        12.8810   -8.8280    2.7230 C.3   152  HIS152      0.0771
    145  CG        13.9880   -8.9190    1.7350 C.ar  152  HIS152      0.0820
    146  ND1       15.2110   -9.4790    2.0300 N.ar  152  HIS152     -0.2267
    147  CD2       14.0410   -8.5110    0.4520 C.ar  152  HIS152      0.1154
    148  CE1       15.9740   -9.4060    0.9340 C.ar  152  HIS152      0.1986
    149  NE2       15.2900   -8.8210   -0.0400 N.ar  152  HIS152     -0.2212
    150  N          6.0860   -7.2410    2.5060 N.3   173  ARG173     -0.1231
    151  CA         7.1740   -7.7560    3.3660 C.3   173  ARG173      0.1694
    152  C          8.5050   -7.2980    2.7980 C.2   173  ARG173      0.2591
    153  O          9.4960   -8.0040    2.9160 O.2   173  ARG173     -0.2718
    154  CB         7.0520   -9.2730    3.5180 C.3   173  ARG173      0.0321
    155  CG         5.7590   -9.5960    4.2850 C.3   173  ARG173      0.0489
    156  CD         5.9910  -10.6020    5.3980 C.3   173  ARG173      0.2205
    157  NE         4.8180  -10.7310    6.2560 N.pl3 173  ARG173     -0.0865
    158  CZ         4.5840  -11.4850    7.3040 C.cat 173  ARG173      0.5346
    159  NH1        5.5100  -12.3330    7.7720 N.pl3 173  ARG173      0.1354
    160  NH2        3.4300  -11.4630    7.9670 N.pl3 173  ARG173      0.1354
    161  N          8.5220   -6.1110    2.1770 N.am  174  VAL174     -0.1980
    162  CA         9.8100   -5.5680    1.7270 C.3   174  VAL174      0.1595
    163  C          9.8500   -4.0680    1.9910 C.2   174  VAL174      0.2287
    164  O          8.8270   -3.3480    1.9540 O.2   174  VAL174     -0.2864
    165  CB        10.0470   -5.8780    0.2490 C.3   174  VAL174      0.0276
    166  CG1        8.8500   -5.4310   -0.6010 C.3   174  VAL174      0.0022
    167  CG2       11.3300   -5.2170   -0.2420 C.3   174  VAL174      0.0022
@<TRIPOS>BOND
     1   166   165    1
     2   167   165    1
     3   149   147   ar
     4   149   148   ar
     5   165   162    1
     6   147   145   ar
     7   148   146   ar
     8   162   163    1
     9   162   161    1
    10   145   146   ar
    11   145   144    1
    12   164   163    2
    13   161   152   am
    14    30    28   am
    15   150   151    1
    16   144   141    1
    17   152   153    2
    18   152   151    1
    19   143   142    2
    20    93    91    1
    21   142   141    1
    22   151   154    1
    23    92    91    1
    24    28    29    2
    25    28    27    1
    26   154   155    1
    27   141   140    1
    28    91    90    2
    29    21    20    1
    30   155   156    1
    31    27    24    1
    32   140   135   am
    33    20    22    1
    34    20    19    2
    35    90    89    1
    36   156   157    1
    37   138   137    1
    38   138   139    1
    39   135   136    2
    40   135   134    1
    41    24    23    1
    42    24    25    1
    43   137   134    1
    44    19    18    1
    45    18    17    1
    46    89    88    1
    47   157   158    2
    48    23    14   am
    49    16    17    1
    50    16    13    1
    51   134   133    1
    52   139   133    1
    53    26    25    2
    54    14    15    2
    55    14    13    1
    56    25    31   am
    57    13    12    1
    58   158   159    1
    59   158   160    1
    60   133   128   am
    61    88    87    1
    62    45    44    1
    63    82    80   ar
    64    82    81   ar
    65    31    32    1
    66    80    78   ar
    67   100    99    1
    68   130   127    1
    69   130   131    1
    70    81    79   ar
    71    87    84    1
    72   128   127    1
    73   128   129    2
    74    44    46    1
    75    44    43    1
    76    12     7   am
    77   101    99    1
    78    99    98    1
    79   127   126    1
    80   131   132    1
    81    32    33    1
    82    32    35    1
    83     8     7    2
    84    68    66   ar
    85    68    67   ar
    86    78    77   ar
    87    78    76   ar
    88     7     6    1
    89    79    76   ar
    90    43    40    1
    91    84    83    1
    92    84    85    1
    93    66    64   ar
    94    67    65   ar
    95    33    39   am
    96    33    34    2
    97    39    40    1
    98    77    75   ar
    99    35    36    1
   100    76    74   ar
   101    57    54    1
   102    85    94   am
   103    85    86    2
   104   126   132    1
   105    98    95    1
   106    94    95    1
   107    40    41    1
   108     6     5    1
   109     6     9    1
   110    10     9    1
   111    36    37   ar
   112    36    38   ar
   113     5     3   am
   114    95    96    1
   115    75    74   ar
   116    64    63   ar
   117    65    63   ar
   118    74    73    1
   119     3     2    1
   120     3     4    2
   121    53    54    1
   122    53    49   am
   123     2     1    1
   124     9    11    1
   125    54    55    1
   126    63    62    1
   127    51    48    1
   128    51    52    1
   129    41    42    2
   130    48    49    1
   131    48    47    1
   132    73    70    1
   133    55    58   am
   134    55    56    2
   135    58    59    1
   136    96    97    2
   137    49    50    2
   138   108   106    1
   139   107   106    1
   140    62    59    1
   141   124   125   ar
   142   124   122   ar
   143    59    60    1
   144   106   103    1
   145    70    69    1
   146    70    71    1
   147   125   123   ar
   148   114   113    1
   149   122   121   ar
   150    60    61    2
   151   103   102    1
   152   103   104    1
   153    71    72    2
   154   123   121   ar
   155   109   104   am
   156   109   110    1
   157   113   110    1
   158   113   115    1
   159   104   105    2
   160   121   120    1
   161   110   111    1
   162   120   117    1
   163   111   112    2
   164   117   116    1
   165   117   118    1
   166   118   119    2
