@<TRIPOS>MOLECULE
tmp/1he4A01.pdb
 138 136 0 0 0
SMALL
GASTEIGER

@<TRIPOS>ATOM
      1  N         25.6120   -8.0390   11.0060 N.3    77  THR77      -0.1203
      2  CA        26.7010   -9.0060   10.9280 C.3    77  THR77       0.1994
      3  C         27.0440   -9.3980    9.4960 C.2    77  THR77       0.2618
      4  O         27.6790  -10.4370    9.2720 O.2    77  THR77      -0.2717
      5  CB        26.2410  -10.2730   11.6930 C.3    77  THR77       0.1784
      6  OG1       25.0940  -10.7700   10.9960 O.3    77  THR77      -0.2211
      7  CG2       25.8420   -9.8990   13.1100 C.3    77  THR77       0.0376
      8  N         26.6160   -8.5480    8.5670 N.am   78  ARG78      -0.1965
      9  CA        26.7780   -8.7970    7.1240 C.3    78  ARG78       0.1729
     10  C         26.3240  -10.2140    6.7920 C.2    78  ARG78       0.2616
     11  O         25.1550  -10.5240    7.0810 O.2    78  ARG78      -0.2715
     12  CB        28.1900   -8.5110    6.6510 C.3    78  ARG78       0.0348
     13  CG        28.5730   -7.0320    6.7520 C.3    78  ARG78       0.0492
     14  CD        29.8290   -6.7390    5.9370 C.3    78  ARG78       0.2205
     15  NE        30.1440   -5.3160    5.9870 N.pl3  78  ARG78      -0.0865
     16  CZ        29.6920   -4.4250    5.1110 C.cat  78  ARG78       0.5346
     17  NH1       28.8930   -4.8000    4.1060 N.pl3  78  ARG78       0.1354
     18  NH2       30.0490   -3.1580    5.2660 N.pl3  78  ARG78       0.1354
     19  N         27.1490  -11.0970    6.2420 N.am   79  ASN79      -0.1972
     20  CA        26.6060  -12.4150    5.8890 C.3    79  ASN79       0.1688
     21  C         26.8730  -13.4670    6.9560 C.2    79  ASN79       0.2292
     22  O         26.6280  -14.6570    6.7210 O.2    79  ASN79      -0.2864
     23  CB        27.1930  -12.9010    4.5550 C.3    79  ASN79       0.1181
     24  CG        26.8160  -11.9170    3.4600 C.2    79  ASN79       0.2629
     25  OD1       25.6490  -11.5340    3.3520 O.2    79  ASN79      -0.2716
     26  ND2       27.7990  -11.5070    2.6740 N.am   79  ASN79      -0.0877
     27  N         26.0740  -15.5810    9.9290 N.3    81  LEU81      -0.1245
     28  CA        24.8830  -15.9590   10.6900 C.3    81  LEU81       0.1561
     29  C         25.1940  -16.6960   11.9780 C.2    81  LEU81       0.2260
     30  O         24.2950  -17.2740   12.5790 O.2    81  LEU81      -0.2867
     31  CB        23.9810  -16.8300    9.8080 C.3    81  LEU81       0.0270
     32  CG        23.5680  -16.0640    8.5430 C.3    81  LEU81       0.0019
     33  CD1       22.7980  -16.9810    7.6090 C.3    81  LEU81       0.0001
     34  CD2       22.7840  -14.8170    8.9550 C.3    81  LEU81       0.0001
     35  N         14.6420   -6.2030   13.4380 N.3   111  SER111     -0.1202
     36  CA        13.9980   -6.8950   12.3350 C.3   111  SER111      0.2020
     37  C         12.5360   -7.1880   12.6430 C.2   111  SER111      0.2619
     38  O         12.1550   -7.2840   13.8050 O.2   111  SER111     -0.2717
     39  CB        14.7200   -8.1790   11.9420 C.3   111  SER111      0.2103
     40  OG        14.2170   -9.2830   12.6470 O.3   111  SER111     -0.2182
     41  N         11.7610   -7.3520   11.5800 N.am  112  ALA112     -0.1965
     42  CA        10.3450   -7.6530   11.7120 C.3   112  ALA112      0.1728
     43  C         10.1300   -9.0010   12.3800 C.2   112  ALA112      0.2616
     44  O          9.0130   -9.2580   12.8330 O.2   112  ALA112     -0.2715
     45  CB         9.6560   -7.6230   10.3330 C.3   112  ALA112      0.0334
     46  N         11.1490   -9.8660   12.4580 N.am  113  PHE113     -0.1974
     47  CA        10.9570  -11.1250   13.2010 C.3   113  PHE113      0.1639
     48  C         10.5710  -10.8790   14.6470 C.2   113  PHE113      0.2290
     49  O          9.9950  -11.7440   15.3090 O.2   113  PHE113     -0.2864
     50  CB        12.2170  -12.0160   13.1480 C.3   113  PHE113      0.0560
     51  CG        12.4400  -12.6410   11.7780 C.ar  113  PHE113     -0.0200
     52  CD1       11.3960  -13.2770   11.1210 C.ar  113  PHE113     -0.0042
     53  CD2       13.6740  -12.5230   11.1530 C.ar  113  PHE113     -0.0042
     54  CE1       11.6180  -13.8480    9.8790 C.ar  113  PHE113     -0.0003
     55  CE2       13.8910  -13.1380    9.9310 C.ar  113  PHE113     -0.0003
     56  CZ        12.8410  -13.7170    9.2600 C.ar  113  PHE113     -0.0000
     57  N          6.7060  -10.5100   14.2140 N.3   116  TRP116     -0.1241
     58  CA         6.0500  -11.7200   13.7180 C.3   116  TRP116      0.1605
     59  C          6.0900  -12.8610   14.7160 C.2   116  TRP116      0.2264
     60  O          6.7690  -12.8370   15.7470 O.2   116  TRP116     -0.2867
     61  CB         6.7280  -12.1110   12.3910 C.3   116  TRP116      0.0550
     62  CG         6.5640  -11.0720   11.3100 C.ar  116  TRP116      0.0003
     63  CD1        5.6590  -10.0510   11.2400 C.ar  116  TRP116      0.0946
     64  CD2        7.3490  -10.9640   10.1190 C.ar  116  TRP116      0.0152
     65  NE1        5.8330   -9.3210   10.0810 N.ar  116  TRP116     -0.2442
     66  CE2        6.8700   -9.8650    9.3800 C.ar  116  TRP116      0.0810
     67  CE3        8.4180  -11.7140    9.6180 C.ar  116  TRP116      0.0012
     68  CZ2        7.4240   -9.4890    8.1650 C.ar  116  TRP116      0.0191
     69  CZ3        8.9680  -11.3360    8.4150 C.ar  116  TRP116      0.0001
     70  CH2        8.4700  -10.2320    7.7010 C.ar  116  TRP116      0.0015
     71  N         18.4900  -17.9850   10.5040 N.3   125  LEU125     -0.1245
     72  CA        18.5340  -16.6340   11.0380 C.3   125  LEU125      0.1561
     73  C         18.2620  -16.5820   12.5390 C.2   125  LEU125      0.2260
     74  O         18.1690  -15.4800   13.1040 O.2   125  LEU125     -0.2867
     75  CB        17.5070  -15.7250   10.3350 C.3   125  LEU125      0.0270
     76  CG        17.7550  -15.5870    8.8310 C.3   125  LEU125      0.0019
     77  CD1       16.6820  -14.7130    8.2000 C.3   125  LEU125      0.0001
     78  CD2       19.1460  -15.0170    8.5860 C.3   125  LEU125      0.0001
     79  N         21.1310  -14.7890   14.8470 N.3   128  VAL128     -0.1245
     80  CA        21.1530  -13.3450   14.6970 C.3   128  VAL128      0.1561
     81  C         19.9080  -12.7320   15.3160 C.2   128  VAL128      0.2260
     82  O         19.9930  -11.7070   16.0020 O.2   128  VAL128     -0.2867
     83  CB        21.2580  -12.9610   13.2070 C.3   128  VAL128      0.0252
     84  CG1       20.9880  -11.4850   13.0250 C.3   128  VAL128      0.0019
     85  CG2       22.6560  -13.3590   12.7420 C.3   128  VAL128      0.0019
     86  N         19.3450   -9.7820   18.0240 N.3   132  HIS132     -0.1241
     87  CA        18.4670   -8.6270   17.8550 C.3   132  HIS132      0.1621
     88  C         17.5570   -8.4740   19.0700 C.2   132  HIS132      0.2264
     89  O         17.2730   -7.3740   19.5350 O.2   132  HIS132     -0.2867
     90  CB        17.5790   -8.8130   16.6270 C.3   132  HIS132      0.0745
     91  CG        18.2220   -8.4280   15.3360 C.ar  132  HIS132      0.0817
     92  ND1       17.9390   -9.0970   14.1770 N.ar  132  HIS132     -0.2268
     93  CD2       19.1260   -7.4760   14.9980 C.ar  132  HIS132      0.1154
     94  CE1       18.6340   -8.5670   13.1780 C.ar  132  HIS132      0.1986
     95  NE2       19.3840   -7.5770   13.6550 N.ar  132  HIS132     -0.2212
     96  N         12.3300   -3.8430   10.3720 N.3   151  PRO151     -0.2103
     97  CA        11.9720   -3.9970    8.9610 C.3   151  PRO151      0.1489
     98  C         11.8610   -5.4510    8.5180 C.2   151  PRO151      0.2418
     99  O         12.5130   -6.3460    9.0590 O.2   151  PRO151     -0.2734
    100  CB        13.1490   -3.3560    8.2250 C.3   151  PRO151      0.0282
    101  CG        14.3060   -3.6200    9.1570 C.3   151  PRO151      0.0208
    102  CD        13.7180   -3.4130   10.5350 C.3   151  PRO151      0.0893
    103  N         11.1150   -5.6710    7.4570 N.am  152  PRO152     -0.2718
    104  CA        11.1310   -6.9620    6.7540 C.3   152  PRO152      0.1535
    105  C         12.3450   -7.0180    5.8360 C.2   152  PRO152      0.2599
    106  O         13.3290   -6.3380    6.0970 O.2   152  PRO152     -0.2715
    107  CB         9.8080   -6.9200    5.9920 C.3   152  PRO152      0.0310
    108  CG         9.7190   -5.4840    5.5860 C.3   152  PRO152      0.0237
    109  CD        10.2650   -4.6790    6.7550 C.3   152  PRO152      0.0939
    110  N         12.2810   -7.8740    4.8100 N.am  153  HIS153     -0.1960
    111  CA        13.4090   -7.9650    3.8980 C.3   153  HIS153      0.1787
    112  C         13.8300   -6.5920    3.3740 C.2   153  HIS153      0.2620
    113  O         12.9460   -5.8320    2.9710 O.2   153  HIS153     -0.2715
    114  CB        12.9590   -8.8300    2.7150 C.3   153  HIS153      0.0785
    115  CG        14.0020   -8.8780    1.6420 C.ar  153  HIS153      0.0821
    116  ND1       15.1700   -9.6010    1.7950 N.ar  153  HIS153     -0.2267
    117  CD2       14.0780   -8.2990    0.4160 C.ar  153  HIS153      0.1154
    118  CE1       15.9110   -9.4810    0.7050 C.ar  153  HIS153      0.1986
    119  NE2       15.2630   -8.6940   -0.1520 N.ar  153  HIS153     -0.2212
    120  N         15.1310   -6.3190    3.4120 N.am  154  ILE154     -0.1977
    121  CA        15.6930   -5.0580    2.9350 C.3   154  ILE154      0.1596
    122  C         16.1140   -5.2380    1.4850 C.2   154  ILE154      0.2287
    123  O         16.9860   -6.0610    1.2090 O.2   154  ILE154     -0.2864
    124  CB        16.8830   -4.6310    3.8040 C.3   154  ILE154      0.0276
    125  CG1       16.4350   -4.4220    5.2650 C.3   154  ILE154      0.0022
    126  CG2       17.5720   -3.3920    3.2450 C.3   154  ILE154      0.0022
    127  CD1       17.5910   -4.2220    6.2170 C.3   154  ILE154      0.0001
    128  N          6.1600   -7.2860    2.5750 N.3   174  ARG174     -0.1245
    129  CA         7.2570   -7.7850    3.4130 C.3   174  ARG174      0.1563
    130  C          8.5830   -7.3490    2.8110 C.2   174  ARG174      0.2260
    131  O          9.6070   -8.0290    2.8900 O.2   174  ARG174     -0.2867
    132  CB         7.1750   -9.3050    3.5510 C.3   174  ARG174      0.0307
    133  CG         5.9800   -9.7460    4.3630 C.3   174  ARG174      0.0489
    134  CD         6.0990  -11.1770    4.8610 C.3   174  ARG174      0.2205
    135  NE         5.2890  -11.3570    6.0620 N.pl3 174  ARG174     -0.0865
    136  CZ         5.4360  -12.2050    7.0740 C.cat 174  ARG174      0.5346
    137  NH1        6.4390  -13.0830    7.1240 N.pl3 174  ARG174      0.1354
    138  NH2        4.5660  -12.1930    8.0890 N.pl3 174  ARG174      0.1354
@<TRIPOS>BOND
     1   119   117   ar
     2   119   118   ar
     3   117   115   ar
     4   118   116   ar
     5   123   122    2
     6   122   121    1
     7   115   116   ar
     8   115   114    1
     9   128   129    1
    10    26    24   am
    11   114   111    1
    12   130   131    2
    13   130   129    1
    14   121   120    1
    15   121   124    1
    16   113   112    2
    17   126   124    1
    18    25    24    2
    19   112   120   am
    20   112   111    1
    21   129   132    1
    22    24    23    1
    23   132   133    1
    24   124   125    1
    25   111   110    1
    26    17    16    1
    27   133   134    1
    28    23    20    1
    29   110   105   am
    30   134   135    1
    31    16    18    1
    32    16    15    2
    33   125   127    1
    34   108   107    1
    35   108   109    1
    36   105   106    2
    37   105   104    1
    38    20    19    1
    39    20    21    1
    40    14    15    1
    41    14    13    1
    42   107   104    1
    43   135   136    2
    44    19    10   am
    45    12    13    1
    46    12     9    1
    47    22    21    2
    48   104   103    1
    49   109   103    1
    50    10    11    2
    51    10     9    1
    52   136   137    1
    53   136   138    1
    54     9     8    1
    55   103    98   am
    56    33    32    1
    57    70    68   ar
    58    70    69   ar
    59    68    66   ar
    60    77    76    1
    61   100    97    1
    62   100   101    1
    63    69    67   ar
    64    98    97    1
    65    98    99    2
    66    32    34    1
    67    32    31    1
    68     8     3   am
    69    78    76    1
    70    76    75    1
    71    97    96    1
    72   101   102    1
    73    56    54   ar
    74    56    55   ar
    75     4     3    2
    76    66    65   ar
    77    66    64   ar
    78     3     2    1
    79    67    64   ar
    80    31    28    1
    81    54    52   ar
    82    27    28    1
    83    55    53   ar
    84    65    63   ar
    85    64    62   ar
    86    45    42    1
    87    75    72    1
    88    96   102    1
    89    71    72    1
    90    28    29    1
    91     2     1    1
    92     2     5    1
    93     6     5    1
    94    72    73    1
    95    52    51   ar
    96    53    51   ar
    97    63    62   ar
    98    62    61    1
    99    41    42    1
   100    41    37   am
   101     5     7    1
   102    42    43    1
   103    51    50    1
   104    39    36    1
   105    39    40    1
   106    29    30    2
   107    36    37    1
   108    36    35    1
   109    43    46   am
   110    43    44    2
   111    61    58    1
   112    46    47    1
   113    73    74    2
   114    37    38    2
   115    85    83    1
   116    84    83    1
   117    50    47    1
   118    94    95   ar
   119    94    92   ar
   120    47    48    1
   121    83    80    1
   122    95    93   ar
   123    58    57    1
   124    58    59    1
   125    92    91   ar
   126    48    49    2
   127    80    79    1
   128    80    81    1
   129    59    60    2
   130    93    91   ar
   131    81    82    2
   132    91    90    1
   133    90    87    1
   134    87    86    1
   135    87    88    1
   136    88    89    2
