@<TRIPOS>MOLECULE
tmp/1he5A01.pdb
 145 143 0 0 0
SMALL
GASTEIGER

@<TRIPOS>ATOM
      1  N         25.6500   -8.1590   11.1210 N.3    77  THR77      -0.1203
      2  CA        26.7200   -9.1380   10.9930 C.3    77  THR77       0.1994
      3  C         27.0360   -9.4990    9.5370 C.2    77  THR77       0.2618
      4  O         27.7010  -10.5050    9.2750 O.2    77  THR77      -0.2717
      5  CB        26.3070  -10.4420   11.7190 C.3    77  THR77       0.1784
      6  OG1       25.1940  -11.0150   11.0320 O.3    77  THR77      -0.2211
      7  CG2       25.8730  -10.1220   13.1430 C.3    77  THR77       0.0376
      8  N         26.5770   -8.6520    8.6200 N.am   78  ARG78      -0.1965
      9  CA        26.7040   -8.8710    7.1790 C.3    78  ARG78       0.1729
     10  C         26.2270  -10.2760    6.8440 C.2    78  ARG78       0.2616
     11  O         25.0810  -10.6100    7.1690 O.2    78  ARG78      -0.2715
     12  CB        28.1280   -8.6140    6.7020 C.3    78  ARG78       0.0348
     13  CG        28.5430   -7.1500    6.8270 C.3    78  ARG78       0.0492
     14  CD        29.6850   -6.8220    5.8760 C.3    78  ARG78       0.2205
     15  NE        29.9980   -5.4010    5.9300 N.pl3  78  ARG78      -0.0865
     16  CZ        29.6530   -4.5140    5.0010 C.cat  78  ARG78       0.5346
     17  NH1       28.9730   -4.8860    3.9220 N.pl3  78  ARG78       0.1354
     18  NH2       30.0110   -3.2470    5.1950 N.pl3  78  ARG78       0.1354
     19  N         27.0530  -11.1170    6.2360 N.am   79  ASN79      -0.1972
     20  CA        26.5690  -12.4580    5.8890 C.3    79  ASN79       0.1688
     21  C         26.9090  -13.4780    6.9590 C.2    79  ASN79       0.2292
     22  O         26.7640  -14.6860    6.7590 O.2    79  ASN79      -0.2864
     23  CB        27.1760  -12.8700    4.5370 C.3    79  ASN79       0.1181
     24  CG        26.7650  -11.8430    3.4930 C.2    79  ASN79       0.2629
     25  OD1       25.6300  -11.3610    3.5400 O.2    79  ASN79      -0.2716
     26  ND2       27.6810  -11.5250    2.5890 N.am   79  ASN79      -0.0877
     27  N         26.1180  -15.5900    9.9810 N.3    81  LEU81      -0.1245
     28  CA        24.9210  -15.9830   10.7170 C.3    81  LEU81       0.1561
     29  C         25.2120  -16.7710   11.9800 C.2    81  LEU81       0.2260
     30  O         24.2890  -17.3310   12.5720 O.2    81  LEU81      -0.2867
     31  CB        24.0090  -16.8310    9.8260 C.3    81  LEU81       0.0270
     32  CG        23.4960  -16.0820    8.5920 C.3    81  LEU81       0.0019
     33  CD1       22.5600  -17.0070    7.8290 C.3    81  LEU81       0.0001
     34  CD2       22.8450  -14.7670    8.9940 C.3    81  LEU81       0.0001
     35  N         14.7150   -6.2580   13.3810 N.3   111  SER111     -0.1202
     36  CA        14.0590   -6.9620   12.2870 C.3   111  SER111      0.2020
     37  C         12.6000   -7.2570   12.6000 C.2   111  SER111      0.2619
     38  O         12.2350   -7.3810   13.7630 O.2   111  SER111     -0.2717
     39  CB        14.8370   -8.2390   11.9600 C.3   111  SER111      0.2103
     40  OG        14.1160   -9.3830   12.3000 O.3   111  SER111     -0.2182
     41  N         11.8080   -7.3650   11.5440 N.am  112  ALA112     -0.1965
     42  CA        10.3920   -7.6910   11.6420 C.3   112  ALA112      0.1728
     43  C         10.1800   -9.0360   12.3270 C.2   112  ALA112      0.2616
     44  O          9.0890   -9.3050   12.8140 O.2   112  ALA112     -0.2715
     45  CB         9.7100   -7.6920   10.2670 C.3   112  ALA112      0.0334
     46  N         11.1860   -9.8940   12.4040 N.am  113  PHE113     -0.1974
     47  CA        11.0050  -11.1390   13.1580 C.3   113  PHE113      0.1639
     48  C         10.6110  -10.8660   14.5960 C.2   113  PHE113      0.2290
     49  O         10.0170  -11.7290   15.2420 O.2   113  PHE113     -0.2864
     50  CB        12.2850  -11.9770   13.1250 C.3   113  PHE113      0.0560
     51  CG        12.5250  -12.6270   11.7710 C.ar  113  PHE113     -0.0200
     52  CD1       11.4890  -13.2700   11.1120 C.ar  113  PHE113     -0.0042
     53  CD2       13.7720  -12.5790   11.1790 C.ar  113  PHE113     -0.0042
     54  CE1       11.6990  -13.8840    9.8940 C.ar  113  PHE113     -0.0003
     55  CE2       13.9800  -13.1890    9.9580 C.ar  113  PHE113     -0.0003
     56  CZ        12.9370  -13.7860    9.2880 C.ar  113  PHE113     -0.0000
     57  N          6.7570  -10.5010   14.1790 N.3   116  TRP116     -0.1241
     58  CA         6.0510  -11.6650   13.6440 C.3   116  TRP116      0.1605
     59  C          6.0330  -12.8170   14.6360 C.2   116  TRP116      0.2264
     60  O          6.6740  -12.8200   15.6900 O.2   116  TRP116     -0.2867
     61  CB         6.7110  -12.0610   12.3200 C.3   116  TRP116      0.0550
     62  CG         6.5780  -11.0470   11.2250 C.ar  116  TRP116      0.0003
     63  CD1        5.6970  -10.0110   11.1260 C.ar  116  TRP116      0.0946
     64  CD2        7.3860  -10.9800   10.0380 C.ar  116  TRP116      0.0152
     65  NE1        5.8970   -9.3080    9.9570 N.ar  116  TRP116     -0.2442
     66  CE2        6.9340   -9.8850    9.2750 C.ar  116  TRP116      0.0810
     67  CE3        8.4470  -11.7550    9.5640 C.ar  116  TRP116      0.0012
     68  CZ2        7.5130   -9.5480    8.0560 C.ar  116  TRP116      0.0191
     69  CZ3        9.0230  -11.4160    8.3560 C.ar  116  TRP116      0.0001
     70  CH2        8.5530  -10.3210    7.6180 C.ar  116  TRP116      0.0015
     71  N         18.5130  -18.0780   10.5350 N.3   125  LEU125     -0.1245
     72  CA        18.5510  -16.7190   11.0710 C.3   125  LEU125      0.1561
     73  C         18.2740  -16.6360   12.5710 C.2   125  LEU125      0.2260
     74  O         18.2110  -15.5130   13.1080 O.2   125  LEU125     -0.2867
     75  CB        17.5310  -15.8280   10.3430 C.3   125  LEU125      0.0270
     76  CG        17.8270  -15.6370    8.8570 C.3   125  LEU125      0.0019
     77  CD1       16.6640  -14.9630    8.1460 C.3   125  LEU125      0.0001
     78  CD2       19.1110  -14.8260    8.6970 C.3   125  LEU125      0.0001
     79  N         21.1520  -14.8140   14.8350 N.3   128  VAL128     -0.1231
     80  CA        21.1950  -13.3590   14.7150 C.3   128  VAL128      0.1692
     81  C         19.9540  -12.7440   15.3480 C.2   128  VAL128      0.2592
     82  O         20.0070  -11.7140   16.0290 O.2   128  VAL128     -0.2718
     83  CB        21.3290  -12.9800   13.2280 C.3   128  VAL128      0.0266
     84  CG1       20.9790  -11.5200   13.0450 C.3   128  VAL128      0.0020
     85  CG2       22.7400  -13.3100   12.7420 C.3   128  VAL128      0.0020
     86  N         18.8050  -13.3820   15.1350 N.am  129  THR129     -0.1953
     87  CA        17.5650  -12.8770   15.7140 C.3   129  THR129      0.1897
     88  C         17.6560  -12.9090   17.2310 C.2   129  THR129      0.2313
     89  O         17.1930  -11.9630   17.8660 O.2   129  THR129     -0.2863
     90  CB        16.3580  -13.6850   15.2130 C.3   129  THR129      0.1794
     91  OG1       16.3230  -13.5720   13.7710 O.3   129  THR129     -0.2208
     92  CG2       15.0360  -13.1420   15.7150 C.3   129  THR129      0.0378
     93  N         19.3770   -9.8440   18.0130 N.3   132  HIS132     -0.1241
     94  CA        18.4870   -8.6960   17.8670 C.3   132  HIS132      0.1621
     95  C         17.5600   -8.5320   19.0630 C.2   132  HIS132      0.2264
     96  O         17.2710   -7.4250   19.5180 O.2   132  HIS132     -0.2867
     97  CB        17.6170   -8.8510   16.6190 C.3   132  HIS132      0.0745
     98  CG        18.2760   -8.4640   15.3360 C.ar  132  HIS132      0.0817
     99  ND1       17.9840   -9.1070   14.1500 N.ar  132  HIS132     -0.2268
    100  CD2       19.1830   -7.5090   15.0210 C.ar  132  HIS132      0.1154
    101  CE1       18.6780   -8.5770   13.1630 C.ar  132  HIS132      0.1986
    102  NE2       19.4210   -7.6050   13.6660 N.ar  132  HIS132     -0.2212
    103  N         12.3350   -3.8610   10.3230 N.3   151  PRO151     -0.2103
    104  CA        11.9720   -4.0020    8.9150 C.3   151  PRO151      0.1489
    105  C         11.8700   -5.4570    8.4650 C.2   151  PRO151      0.2418
    106  O         12.5020   -6.3600    9.0090 O.2   151  PRO151     -0.2734
    107  CB        13.1620   -3.3620    8.1910 C.3   151  PRO151      0.0282
    108  CG        14.3120   -3.6200    9.1220 C.3   151  PRO151      0.0208
    109  CD        13.7430   -3.4830   10.5110 C.3   151  PRO151      0.0893
    110  N         11.1210   -5.6770    7.4000 N.am  152  PRO152     -0.2718
    111  CA        11.0980   -6.9790    6.7190 C.3   152  PRO152      0.1535
    112  C         12.3140   -7.0530    5.7960 C.2   152  PRO152      0.2599
    113  O         13.2840   -6.3290    6.0450 O.2   152  PRO152     -0.2715
    114  CB         9.8110   -6.8890    5.9090 C.3   152  PRO152      0.0310
    115  CG         9.7740   -5.4410    5.5040 C.3   152  PRO152      0.0237
    116  CD        10.2870   -4.6640    6.7140 C.3   152  PRO152      0.0939
    117  N         12.2450   -7.8820    4.7630 N.am  153  HIS153     -0.1960
    118  CA        13.3830   -7.9800    3.8500 C.3   153  HIS153      0.1787
    119  C         13.8180   -6.6180    3.3210 C.2   153  HIS153      0.2620
    120  O         12.9400   -5.8510    2.9090 O.2   153  HIS153     -0.2715
    121  CB        12.9940   -8.8400    2.6410 C.3   153  HIS153      0.0785
    122  CG        14.0920   -8.8850    1.6150 C.ar  153  HIS153      0.0821
    123  ND1       15.3090   -9.5060    1.8280 N.ar  153  HIS153     -0.2267
    124  CD2       14.1730   -8.3720    0.3640 C.ar  153  HIS153      0.1154
    125  CE1       16.0750   -9.3870    0.7480 C.ar  153  HIS153      0.1986
    126  NE2       15.4040   -8.6930   -0.1620 N.ar  153  HIS153     -0.2212
    127  N         15.1170   -6.3460    3.3390 N.am  154  ILE154     -0.1977
    128  CA        15.6270   -5.0660    2.8410 C.3   154  ILE154      0.1596
    129  C         16.0520   -5.2200    1.3870 C.2   154  ILE154      0.2287
    130  O         16.9150   -6.0500    1.0860 O.2   154  ILE154     -0.2864
    131  CB        16.7880   -4.5760    3.7190 C.3   154  ILE154      0.0276
    132  CG1       16.3030   -4.3660    5.1590 C.3   154  ILE154      0.0022
    133  CG2       17.4220   -3.3370    3.1200 C.3   154  ILE154      0.0022
    134  CD1       17.4350   -4.2180    6.1650 C.3   154  ILE154      0.0001
    135  N          6.1140   -7.3070    2.4370 N.3   174  ARG174     -0.1245
    136  CA         7.2070   -7.7760    3.2970 C.3   174  ARG174      0.1563
    137  C          8.5360   -7.3230    2.7240 C.2   174  ARG174      0.2260
    138  O          9.5330   -8.0390    2.7820 O.2   174  ARG174     -0.2867
    139  CB         7.1450   -9.2960    3.4630 C.3   174  ARG174      0.0307
    140  CG         5.9550   -9.7400    4.3100 C.3   174  ARG174      0.0489
    141  CD         6.2650  -11.0320    5.0480 C.3   174  ARG174      0.2205
    142  NE         5.2040  -11.3970    5.9810 N.pl3 174  ARG174     -0.0865
    143  CZ         5.2350  -12.4600    6.7740 C.cat 174  ARG174      0.5346
    144  NH1        6.2790  -13.2770    6.7530 N.pl3 174  ARG174      0.1354
    145  NH2        4.2210  -12.7120    7.5910 N.pl3 174  ARG174      0.1354
@<TRIPOS>BOND
     1   126   124   ar
     2   126   125   ar
     3   124   122   ar
     4   125   123   ar
     5   130   129    2
     6   129   128    1
     7   122   123   ar
     8   122   121    1
     9   135   136    1
    10    26    24   am
    11   121   118    1
    12   137   138    2
    13   137   136    1
    14   128   127    1
    15   128   131    1
    16   120   119    2
    17   133   131    1
    18   136   139    1
    19   119   127   am
    20   119   118    1
    21   139   140    1
    22    24    25    2
    23    24    23    1
    24   131   132    1
    25   118   117    1
    26    17    16    1
    27   140   141    1
    28    23    20    1
    29   117   112   am
    30    16    18    1
    31    16    15    2
    32   141   142    1
    33   132   134    1
    34   115   114    1
    35   115   116    1
    36   112   113    2
    37   112   111    1
    38    14    15    1
    39    14    13    1
    40    20    19    1
    41    20    21    1
    42   114   111    1
    43   142   143    2
    44    19    10   am
    45    12    13    1
    46    12     9    1
    47   116   110    1
    48   111   110    1
    49   144   143    1
    50    22    21    2
    51   143   145    1
    52    10    11    2
    53    10     9    1
    54     9     8    1
    55   110   105   am
    56    70    68   ar
    57    70    69   ar
    58    33    32    1
    59    68    66   ar
    60    77    76    1
    61   107   104    1
    62   107   108    1
    63    69    67   ar
    64   105   104    1
    65   105   106    2
    66    32    34    1
    67    32    31    1
    68     8     3   am
    69    78    76    1
    70    76    75    1
    71   104   103    1
    72   108   109    1
    73     4     3    2
    74    66    65   ar
    75    66    64   ar
    76    56    54   ar
    77    56    55   ar
    78     3     2    1
    79    67    64   ar
    80    31    28    1
    81    54    52   ar
    82    65    63   ar
    83    55    53   ar
    84    27    28    1
    85    64    62   ar
    86    45    42    1
    87   103   109    1
    88    75    72    1
    89    71    72    1
    90    28    29    1
    91     2     1    1
    92     2     5    1
    93     6     5    1
    94    72    73    1
    95    52    51   ar
    96    63    62   ar
    97    53    51   ar
    98    62    61    1
    99    41    42    1
   100    41    37   am
   101    42    43    1
   102     5     7    1
   103    51    50    1
   104    39    36    1
   105    39    40    1
   106    29    30    2
   107    36    37    1
   108    36    35    1
   109    61    58    1
   110    43    46   am
   111    43    44    2
   112    46    47    1
   113    73    74    2
   114    37    38    2
   115    85    83    1
   116    84    83    1
   117    50    47    1
   118    47    48    1
   119   101   102   ar
   120   101    99   ar
   121    83    80    1
   122    58    57    1
   123    58    59    1
   124   102   100   ar
   125    91    90    1
   126    99    98   ar
   127    48    49    2
   128    59    60    2
   129    80    79    1
   130    80    81    1
   131   100    98   ar
   132    86    81   am
   133    86    87    1
   134    90    87    1
   135    90    92    1
   136    98    97    1
   137    81    82    2
   138    87    88    1
   139    97    94    1
   140    88    89    2
   141    94    93    1
   142    94    95    1
   143    95    96    2
