@<TRIPOS>MOLECULE
tmp/1heeC00.pdb
 177 169 0 0 0
SMALL
GASTEIGER

@<TRIPOS>ATOM
      1  N         45.5550   31.1860   40.1980 N.3    69  HIS69      -0.1241
      2  CA        44.3020   31.8030   39.7570 C.3    69  HIS69       0.1621
      3  C         44.0530   31.1400   38.4050 C.2    69  HIS69       0.2264
      4  O         44.7550   31.4110   37.4320 O.2    69  HIS69      -0.2867
      5  CB        44.4670   33.3180   39.6040 C.3    69  HIS69       0.0745
      6  CG        44.4590   34.0520   40.9090 C.ar   69  HIS69       0.0817
      7  ND1       45.1860   35.2010   41.1240 N.ar   69  HIS69      -0.2268
      8  CD2       43.8130   33.7950   42.0690 C.ar   69  HIS69       0.1154
      9  CE1       44.9930   35.6200   42.3610 C.ar   69  HIS69       0.1986
     10  NE2       44.1630   34.7840   42.9570 N.ar   69  HIS69      -0.2212
     11  N         44.1300   32.6560   34.5340 N.3    72  GLU72      -0.1245
     12  CA        45.3690   33.1950   33.9850 C.3    72  GLU72       0.1567
     13  C         46.1160   32.1020   33.2130 C.2    72  GLU72       0.2260
     14  O         47.2370   31.7250   33.5540 O.2    72  GLU72      -0.2867
     15  CB        46.1980   33.7650   35.1390 C.3    72  GLU72       0.0388
     16  CG        45.4200   34.8640   35.8650 C.3    72  GLU72       0.1160
     17  CD        46.0050   35.2760   37.1970 C.2    72  GLU72       0.3649
     18  OE1       47.1010   34.8060   37.5550 O.co2  72  GLU72      -0.2457
     19  OE2       45.3480   36.0900   37.8810 O.co2  72  GLU72      -0.2457
     20  N         38.3340   32.5700   38.7660 N.3   127  ARG127     -0.1245
     21  CA        39.5910   32.8910   39.4430 C.3   127  ARG127      0.1563
     22  C         39.8950   32.0860   40.7090 C.2   127  ARG127      0.2260
     23  O         41.0390   31.6920   40.9480 O.2   127  ARG127     -0.2867
     24  CB        39.5830   34.3860   39.7910 C.3   127  ARG127      0.0307
     25  CG        40.6030   34.8500   40.8340 C.3   127  ARG127      0.0489
     26  CD        40.3930   36.3400   41.1160 C.3   127  ARG127      0.2205
     27  NE        41.2460   36.8750   42.1780 N.pl3 127  ARG127     -0.0865
     28  CZ        42.4340   37.4460   41.9810 C.cat 127  ARG127      0.5346
     29  NH1       42.9300   37.5660   40.7550 N.pl3 127  ARG127      0.1354
     30  NH2       43.1300   37.9040   43.0150 N.pl3 127  ARG127      0.1354
     31  N         44.9870   33.4090   46.5760 N.3   144  ASN144     -0.1225
     32  CA        46.0750   34.3380   46.8570 C.3   144  ASN144      0.1785
     33  C         45.7000   35.4640   47.8260 C.2   144  ASN144      0.2597
     34  O         46.2880   36.5480   47.8070 O.2   144  ASN144     -0.2718
     35  CB        46.6730   34.9150   45.5730 C.3   144  ASN144      0.1169
     36  CG        48.0950   35.4020   45.7820 C.2   144  ASN144      0.2627
     37  OD1       48.8600   34.7850   46.5300 O.2   144  ASN144     -0.2716
     38  ND2       48.4620   36.4980   45.1220 N.am  144  ASN144     -0.0877
     39  N         44.7090   35.1890   48.6700 N.am  145  ARG145     -0.1979
     40  CA        44.2650   36.1110   49.7170 C.3   145  ARG145      0.1597
     41  C         44.0360   35.2440   50.9580 C.2   145  ARG145      0.2287
     42  O         43.5820   35.7250   52.0020 O.2   145  ARG145     -0.2864
     43  CB        42.9480   36.7950   49.3300 C.3   145  ARG145      0.0334
     44  CG        43.0450   37.7380   48.1460 C.3   145  ARG145      0.0492
     45  CD        43.8070   39.0050   48.4940 C.3   145  ARG145      0.2205
     46  NE        43.7590   39.9760   47.4060 N.pl3 145  ARG145     -0.0865
     47  CZ        44.3700   39.8190   46.2350 C.cat 145  ARG145      0.5346
     48  NH1       45.0960   38.7320   46.0030 N.pl3 145  ARG145      0.1354
     49  NH2       44.2640   40.7540   45.3010 N.pl3 145  ARG145      0.1354
     50  N         51.6220   35.0260   37.8700 N.3   196  HIS196     -0.1226
     51  CA        50.2510   35.4090   37.5370 C.3   196  HIS196      0.1752
     52  C         50.2510   36.1620   36.2050 C.2   196  HIS196      0.2597
     53  O         51.2770   36.2860   35.5390 O.2   196  HIS196     -0.2718
     54  CB        49.7030   36.4020   38.5730 C.3   196  HIS196      0.0759
     55  CG        49.6230   35.8690   39.9660 C.ar  196  HIS196      0.0818
     56  ND1       48.4240   35.5590   40.5700 N.ar  196  HIS196     -0.2268
     57  CD2       50.5820   35.6280   40.8890 C.ar  196  HIS196      0.1154
     58  CE1       48.6460   35.1530   41.8060 C.ar  196  HIS196      0.1986
     59  NE2       49.9480   35.1860   42.0260 N.ar  196  HIS196     -0.2212
     60  N         49.0740   36.6760   35.8580 N.am  197  SER197     -0.1938
     61  CA        48.8500   37.5230   34.6840 C.3   197  SER197      0.2055
     62  C         47.5790   38.2960   35.0680 C.2   197  SER197      0.2643
     63  O         46.7980   37.8130   35.9010 O.2   197  SER197     -0.2714
     64  CB        48.6330   36.6960   33.4080 C.3   197  SER197      0.2130
     65  OG        47.2810   36.3060   33.2480 O.3   197  SER197     -0.2179
     66  N         47.3680   39.4930   34.5230 N.am  198  TYR198     -0.1959
     67  CA        48.2610   40.1510   33.5710 C.3   198  TYR198      0.1771
     68  C         48.6000   41.5400   34.1300 C.2   198  TYR198      0.2620
     69  O         47.9850   41.9770   35.1020 O.2   198  TYR198     -0.2715
     70  CB        47.5470   40.3190   32.2160 C.3   198  TYR198      0.0574
     71  CG        46.3070   41.1930   32.2910 C.ar  198  TYR198     -0.0198
     72  CD1       45.0710   40.6630   32.6780 C.ar  198  TYR198     -0.0009
     73  CD2       46.3920   42.5700   32.0760 C.ar  198  TYR198     -0.0009
     74  CE1       43.9470   41.4930   32.8590 C.ar  198  TYR198      0.0417
     75  CE2       45.2910   43.4040   32.2570 C.ar  198  TYR198      0.0417
     76  CZ        44.0720   42.8640   32.6530 C.ar  198  TYR198      0.1957
     77  OH        43.0030   43.7080   32.8910 O.3   198  TYR198     -0.2866
     78  N         49.5710   42.2150   33.5130 N.am  199  SER199     -0.1950
     79  CA        49.9840   43.5770   33.8830 C.3   199  SER199      0.1924
     80  C         51.4360   43.9030   33.5820 C.2   199  SER199      0.2314
     81  O         51.8160   45.0740   33.5710 O.2   199  SER199     -0.2863
     82  CB        49.7250   43.8730   35.3630 C.3   199  SER199      0.2116
     83  OG        48.4220   44.4050   35.5320 O.3   199  SER199     -0.2180
     84  N         56.8930   42.0560   41.1180 N.3   203  LEU203     -0.1245
     85  CA        56.6510   42.5600   42.4700 C.3   203  LEU203      0.1561
     86  C         57.3660   41.8120   43.5900 C.2   203  LEU203      0.2260
     87  O         57.6420   40.6190   43.4760 O.2   203  LEU203     -0.2867
     88  CB        55.1470   42.5090   42.7790 C.3   203  LEU203      0.0270
     89  CG        54.1100   43.1290   41.8390 C.3   203  LEU203      0.0019
     90  CD1       54.3950   44.6070   41.6540 C.3   203  LEU203      0.0001
     91  CD2       54.1260   42.4000   40.5130 C.3   203  LEU203      0.0001
     92  N         54.5060   45.3090   46.1650 N.3   243  ILE243     -0.1245
     93  CA        53.0960   45.1170   45.8420 C.3   243  ILE243      0.1561
     94  C         52.2200   46.3300   46.1660 C.2   243  ILE243      0.2260
     95  O         51.5140   46.8430   45.2990 O.2   243  ILE243     -0.2867
     96  CB        52.5230   43.8960   46.6110 C.3   243  ILE243      0.0252
     97  CG1       53.2890   42.6250   46.2310 C.3   243  ILE243      0.0019
     98  CG2       51.0440   43.7350   46.3140 C.3   243  ILE243      0.0019
     99  CD1       53.0040   41.4630   47.1450 C.3   243  ILE243      0.0001
    100  N         50.6810   48.2490   42.7880 N.3   247  ILE247     -0.1231
    101  CA        49.3120   48.0290   42.3460 C.3   247  ILE247      0.1692
    102  C         48.2680   48.4750   43.3660 C.2   247  ILE247      0.2592
    103  O         47.4220   49.3150   43.0590 O.2   247  ILE247     -0.2718
    104  CB        49.0640   46.5440   41.9240 C.3   247  ILE247      0.0266
    105  CG1       49.8890   45.5770   42.7730 C.3   247  ILE247      0.0019
    106  CG2       49.4180   46.3600   40.4710 C.3   247  ILE247      0.0020
    107  CD1       49.2900   45.2770   44.1080 C.3   247  ILE247      0.0001
    108  N         48.3360   47.9440   44.5810 N.am  248  TYR248     -0.1976
    109  CA        47.3750   48.2960   45.6230 C.3   248  TYR248      0.1639
    110  C         47.5770   47.4100   46.8380 C.2   248  TYR248      0.2290
    111  O         48.2330   46.3770   46.7500 O.2   248  TYR248     -0.2864
    112  CB        45.9410   48.1170   45.0990 C.3   248  TYR248      0.0560
    113  CG        45.7280   46.8380   44.3040 C.ar  248  TYR248     -0.0198
    114  CD1       45.9300   45.5830   44.8840 C.ar  248  TYR248     -0.0009
    115  CD2       45.3550   46.8850   42.9590 C.ar  248  TYR248     -0.0009
    116  CE1       45.7720   44.4070   44.1430 C.ar  248  TYR248      0.0417
    117  CE2       45.1940   45.7180   42.2090 C.ar  248  TYR248      0.0417
    118  CZ        45.4060   44.4830   42.8050 C.ar  248  TYR248      0.1957
    119  OH        45.2780   43.3300   42.0570 O.3   248  TYR248     -0.2866
    120  N         47.0280   44.5720   49.2900 N.3   250  ALA250     -0.1245
    121  CA        46.4560   43.2530   49.0620 C.3   250  ALA250      0.1562
    122  C         46.9310   42.3860   50.2120 C.2   250  ALA250      0.2260
    123  O         48.1370   42.2520   50.4320 O.2   250  ALA250     -0.2867
    124  CB        46.9480   42.6840   47.7320 C.3   250  ALA250      0.0290
    125  N         48.5320   37.4230   50.5670 N.3   253  GLY253     -0.1210
    126  CA        49.2370   36.9480   49.3830 C.3   253  GLY253      0.1956
    127  C         50.4090   36.0390   49.7300 C.2   253  GLY253      0.2613
    128  O         51.0650   36.2290   50.7520 O.2   253  GLY253     -0.2717
    129  N         50.6950   35.0780   48.8560 N.am  254  SER254     -0.1938
    130  CA        51.7530   34.0980   49.0900 C.3   254  SER254      0.2055
    131  C         53.1810   34.5840   49.2970 C.2   254  SER254      0.2643
    132  O         53.8930   34.0410   50.1420 O.2   254  SER254     -0.2714
    133  CB        51.7610   33.0560   47.9670 C.3   254  SER254      0.2130
    134  OG        52.1040   33.6490   46.7320 O.3   254  SER254     -0.2179
    135  N         53.6130   35.5890   48.5430 N.am  255  ILE255     -0.1963
    136  CA        54.9850   36.0700   48.6740 C.3   255  ILE255      0.1727
    137  C         55.2620   36.8000   49.9800 C.2   255  ILE255      0.2616
    138  O         56.3990   36.8080   50.4550 O.2   255  ILE255     -0.2715
    139  CB        55.3820   36.9600   47.4780 C.3   255  ILE255      0.0290
    140  CG1       55.8150   36.0770   46.3060 C.3   255  ILE255      0.0022
    141  CG2       56.5440   37.8530   47.8540 C.3   255  ILE255      0.0023
    142  CD1       54.8480   34.9840   45.9670 C.3   255  ILE255      0.0001
    143  N         54.2330   37.4120   50.5560 N.am  256  ASP256     -0.1971
    144  CA        54.3900   38.0980   51.8330 C.3   256  ASP256      0.1709
    145  C         54.5770   37.0130   52.8900 C.2   256  ASP256      0.2293
    146  O         55.3630   37.1670   53.8280 O.2   256  ASP256     -0.2864
    147  CB        53.1570   38.9490   52.1460 C.3   256  ASP256      0.1436
    148  CG        53.0920   40.2030   51.2980 C.2   256  ASP256      0.3671
    149  OD1       54.0600   40.4600   50.5590 O.co2 256  ASP256     -0.2456
    150  OD2       52.0820   40.9370   51.3730 O.co2 256  ASP256     -0.2456
    151  N         56.8120   37.9200   42.5880 N.3   268  THR268     -0.1218
    152  CA        55.6180   37.5500   41.8420 C.3   268  THR268      0.1862
    153  C         55.7180   38.2350   40.4920 C.2   268  THR268      0.2287
    154  O         56.0000   39.4310   40.4100 O.2   268  THR268     -0.2866
    155  CB        54.3070   38.0150   42.5220 C.3   268  THR268      0.1770
    156  OG1       53.9730   37.1190   43.5860 O.3   268  THR268     -0.2211
    157  CG2       53.1600   38.0290   41.5150 C.3   268  THR268      0.0375
    158  N         53.7870   39.2000   36.9120 N.3   270  GLU270     -0.1245
    159  CA        52.4710   39.4320   36.3180 C.3   270  GLU270      0.1567
    160  C         52.8440   39.4890   34.8420 C.2   270  GLU270      0.2260
    161  O         53.4300   40.4690   34.3740 O.2   270  GLU270     -0.2867
    162  CB        51.8850   40.7720   36.7620 C.3   270  GLU270      0.0388
    163  CG        51.4890   40.8030   38.2250 C.3   270  GLU270      0.1160
    164  CD        50.0930   40.2790   38.4670 C.2   270  GLU270      0.3649
    165  OE1       49.4100   39.8860   37.4960 O.co2 270  GLU270     -0.2457
    166  OE2       49.6720   40.2700   39.6410 O.co2 270  GLU270     -0.2457
    167  N         43.2550   38.3750   30.1780 N.3   279  PHE279     -0.1241
    168  CA        43.3090   36.9500   30.4820 C.3   279  PHE279      0.1605
    169  C         43.1650   36.0780   29.2400 C.2   279  PHE279      0.2264
    170  O         43.5430   34.9070   29.2550 O.2   279  PHE279     -0.2867
    171  CB        42.2150   36.5890   31.4870 C.3   279  PHE279      0.0534
    172  CG        42.3010   37.3590   32.7690 C.ar  279  PHE279     -0.0203
    173  CD1       43.4450   37.2920   33.5590 C.ar  279  PHE279     -0.0042
    174  CD2       41.2520   38.1720   33.1760 C.ar  279  PHE279     -0.0042
    175  CE1       43.5450   38.0270   34.7400 C.ar  279  PHE279     -0.0003
    176  CE2       41.3360   38.9110   34.3540 C.ar  279  PHE279     -0.0003
    177  CZ        42.4890   38.8390   35.1390 C.ar  279  PHE279     -0.0000
@<TRIPOS>BOND
     1   169   170    2
     2   169   168    1
     3   167   168    1
     4   168   171    1
     5   171   172    1
     6    73    75   ar
     7    73    71   ar
     8    70    71    1
     9    70    67    1
    10    75    76   ar
    11    71    72   ar
    12    76    74   ar
    13    76    77    1
    14    72    74   ar
    15   172   174   ar
    16   172   173   ar
    17   174   176   ar
    18    13    14    2
    19    13    12    1
    20    65    64    1
    21    64    61    1
    22    78    79    1
    23    78    68   am
    24   173   175   ar
    25    67    68    1
    26    67    66    1
    27    81    80    2
    28    80    79    1
    29    79    82    1
    30    12    11    1
    31    12    15    1
    32    68    69    2
    33   176   177   ar
    34   161   160    2
    35    66    62   am
    36    61    62    1
    37    61    60    1
    38   175   177   ar
    39   160   159    1
    40    62    63    2
    41    15    16    1
    42    82    83    1
    43    53    52    2
    44    60    52   am
    45    16    17    1
    46    52    51    1
    47   159   162    1
    48   159   158    1
    49   162   163    1
    50    17    18   ar
    51    17    19   ar
    52     4     3    2
    53   165   164   ar
    54    51    50    1
    55    51    54    1
    56   163   164    1
    57     3     2    1
    58   164   166   ar
    59    54    55    1
    60    20    21    1
    61    21    24    1
    62    21    22    1
    63     5     2    1
    64     5     6    1
    65     2     1    1
    66    24    25    1
    67    55    56   ar
    68    55    57   ar
    69   154   153    2
    70   106   104    1
    71   153   152    1
    72    91    89    1
    73    56    58   ar
    74    22    23    2
    75    29    28    1
    76    25    26    1
    77    57    59   ar
    78     6     7   ar
    79     6     8   ar
    80    26    27    1
    81    84    85    1
    82     7     9   ar
    83   157   155    1
    84    90    89    1
    85    58    59   ar
    86    89    88    1
    87   152   155    1
    88   152   151    1
    89   104   101    1
    90   104   105    1
    91    28    27    2
    92    28    30    1
    93   119   118    1
    94     8    10   ar
    95   117   118   ar
    96   117   115   ar
    97   101   100    1
    98   101   102    1
    99     9    10   ar
   100    85    88    1
   101    85    86    1
   102   155   156    1
   103   105   107    1
   104   118   116   ar
   105   115   113   ar
   106   103   102    2
   107   102   108   am
   108    87    86    2
   109   116   114   ar
   110   113   114   ar
   111   113   112    1
   112   108   109    1
   113   112   109    1
   114    38    36   am
   115    95    94    2
   116    49    47    1
   117    35    36    1
   118    35    32    1
   119   109   110    1
   120    36    37    2
   121    93    92    1
   122    93    94    1
   123    93    96    1
   124   142   140    1
   125    48    47    1
   126    97    96    1
   127    97    99    1
   128    47    46    2
   129   140   139    1
   130    98    96    1
   131    31    32    1
   132   134   133    1
   133   111   110    2
   134    32    33    1
   135    46    45    1
   136   139   141    1
   137   139   136    1
   138   124   121    1
   139    34    33    2
   140    33    39   am
   141   133   130    1
   142    44    45    1
   143    44    43    1
   144   135   136    1
   145   135   131   am
   146    39    40    1
   147   136   137    1
   148   129   130    1
   149   129   127   am
   150   121   120    1
   151   121   122    1
   152   130   131    1
   153   131   132    2
   154    43    40    1
   155   126   127    1
   156   126   125    1
   157    40    41    1
   158   127   128    2
   159   137   138    2
   160   137   143   am
   161   122   123    2
   162   143   144    1
   163   149   148   ar
   164    41    42    2
   165   148   150   ar
   166   148   147    1
   167   144   147    1
   168   144   145    1
   169   145   146    2
