@<TRIPOS>MOLECULE
tmp/1hefA00.pdb
 105 98 0 0 0
SMALL
GASTEIGER

@<TRIPOS>ATOM
      1  N         -6.1880   28.5300   21.3610 N.3     8  ARG8       -0.1245
      2  CA        -6.4960   27.8820   22.6940 C.3     8  ARG8        0.1563
      3  C         -6.6470   28.9250   23.7840 C.2     8  ARG8        0.2260
      4  O         -5.8430   29.8580   23.8020 O.2     8  ARG8       -0.2867
      5  CB        -5.3230   26.9690   23.0930 C.3     8  ARG8        0.0307
      6  CG        -5.3340   25.5910   22.5210 C.3     8  ARG8        0.0489
      7  CD        -4.2710   24.7330   23.1300 C.3     8  ARG8        0.2205
      8  NE        -3.9840   23.5850   22.3630 N.pl3   8  ARG8       -0.0865
      9  CZ        -3.0220   22.6880   22.4630 C.cat   8  ARG8        0.5346
     10  NH1       -2.1410   22.7850   23.4440 N.pl3   8  ARG8        0.1354
     11  NH2       -2.9540   21.6870   21.5790 N.pl3   8  ARG8        0.1354
     12  N         -4.5810   26.2360   30.3790 N.3    23  LEU23      -0.1301
     13  CA        -5.7180   26.1810   29.3960 C.3    23  LEU23       0.1247
     14  C         -7.0180   26.1750   30.1850 C.3    23  LEU23       0.2009
     15  O         -7.1010   25.3400   31.1660 O.3    23  LEU23      -0.2188
     16  CB        -5.4240   24.7970   28.7640 C.3    23  LEU23       0.0217
     17  CG        -5.9510   24.3260   27.4450 C.3    23  LEU23       0.0015
     18  CD1       -7.0790   23.3230   27.5190 C.3    23  LEU23       0.0000
     19  CD2       -6.3670   25.4840   26.5730 C.3    23  LEU23       0.0000
     20  N        -10.3130   24.7730   30.5850 N.3    25  ASP25      -0.1239
     21  CA       -10.9630   23.5820   30.0770 C.3    25  ASP25       0.1674
     22  C        -12.3480   23.2540   30.6320 C.2    25  ASP25       0.2266
     23  O        -12.5770   22.7450   31.7160 O.2    25  ASP25      -0.2867
     24  CB        -9.9780   22.4260   30.1480 C.3    25  ASP25       0.1410
     25  CG       -10.4060   21.1440   29.4750 C.2    25  ASP25       0.3668
     26  OD1      -11.3230   21.1290   28.6740 O.co2  25  ASP25      -0.2456
     27  OD2       -9.9330   20.0210   29.6740 O.co2  25  ASP25      -0.2456
     28  N        -14.1570   21.0830   29.4150 N.3    27  GLY27      -0.1210
     29  CA       -14.2730   19.6120   29.2980 C.3    27  GLY27       0.1956
     30  C        -13.6450   18.8820   30.4870 C.2    27  GLY27       0.2612
     31  O        -13.5320   17.6500   30.5070 O.2    27  GLY27      -0.2717
     32  N        -13.1480   19.5930   31.4980 N.am   28  ALA28      -0.1965
     33  CA       -12.4900   18.9380   32.6590 C.3    28  ALA28       0.1728
     34  C        -13.2550   19.2070   33.9750 C.2    28  ALA28       0.2616
     35  O        -13.5990   20.3700   34.3080 O.2    28  ALA28      -0.2715
     36  CB       -11.0830   19.4920   32.8050 C.3    28  ALA28       0.0334
     37  N        -13.5390   18.1900   34.6760 N.am   29  ASP29      -0.1957
     38  CA       -14.2410   18.2830   35.9720 C.3    29  ASP29       0.1840
     39  C        -13.2020   18.8530   36.9530 C.2    29  ASP29       0.2622
     40  O        -13.6310   19.6210   37.7990 O.2    29  ASP29      -0.2715
     41  CB       -14.6790   16.9220   36.4880 C.3    29  ASP29       0.1450
     42  CG       -15.3230   16.0930   35.4050 C.2    29  ASP29       0.3671
     43  OD1      -16.0500   16.7550   34.6550 O.co2  29  ASP29      -0.2456
     44  OD2      -15.1770   14.8720   35.4320 O.co2  29  ASP29      -0.2456
     45  N        -11.9610   18.4520   36.7320 N.am   30  ASP30      -0.1971
     46  CA       -10.8780   18.9510   37.6320 C.3    30  ASP30       0.1709
     47  C         -9.7190   19.6070   36.8560 C.2    30  ASP30       0.2293
     48  O         -9.4490   19.4550   35.6600 O.2    30  ASP30      -0.2864
     49  CB       -10.2420   17.7620   38.3960 C.3    30  ASP30       0.1436
     50  CG       -11.1390   16.7810   39.0500 C.2    30  ASP30       0.3671
     51  OD1      -11.9060   17.1060   39.9690 O.co2  30  ASP30      -0.2456
     52  OD2      -11.0900   15.6190   38.5970 O.co2  30  ASP30      -0.2456
     53  N         -5.7320   19.9220   36.8680 N.3    32  VAL32      -0.1245
     54  CA        -4.5440   19.0990   36.8340 C.3    32  VAL32       0.1561
     55  C         -3.3800   19.9160   36.2460 C.2    32  VAL32       0.2260
     56  O         -3.3760   20.4810   35.1370 O.2    32  VAL32      -0.2867
     57  CB        -4.8530   17.7280   36.2070 C.3    32  VAL32       0.0252
     58  CG1       -5.6010   17.7070   34.9400 C.3    32  VAL32       0.0019
     59  CG2       -3.5760   16.8700   36.0840 C.3    32  VAL32       0.0019
     60  N         -7.2490   10.0230   37.6300 N.3    47  ILE47      -0.1231
     61  CA        -8.0880   10.7530   36.7030 C.3    47  ILE47       0.1692
     62  C         -8.0480   10.1130   35.3140 C.2    47  ILE47       0.2593
     63  O         -6.9940    9.6110   34.8960 O.2    47  ILE47      -0.2718
     64  CB        -7.5950   12.2500   36.6240 C.3    47  ILE47       0.0266
     65  CG1       -6.1690   12.2470   36.0080 C.3    47  ILE47       0.0019
     66  CG2       -7.6880   12.9870   37.9680 C.3    47  ILE47       0.0020
     67  CD1       -5.6410   13.5250   35.3000 C.3    47  ILE47       0.0001
     68  N         -9.1600   10.1040   34.6100 N.am   48  GLY48      -0.1942
     69  CA        -9.1830    9.5250   33.2350 C.3    48  GLY48       0.2014
     70  C         -9.3820   10.7230   32.2780 C.2    48  GLY48       0.2639
     71  O         -9.8880   11.7550   32.7120 O.2    48  GLY48      -0.2714
     72  N         -9.0120   10.5130   31.0420 N.am   49  GLY49      -0.1939
     73  CA        -9.0920   11.5260   29.9510 C.3    49  GLY49       0.2014
     74  C         -9.2370   10.7350   28.6660 C.2    49  GLY49       0.2635
     75  O         -9.6530    9.5700   28.7980 O.2    49  GLY49      -0.2714
     76  N         -8.9420   11.2950   27.4960 N.am   50  ILE50      -0.2030
     77  CA        -9.1220   10.4640   26.3150 C.3    50  ILE50       0.1282
     78  C         -8.1220    9.3560   26.2180 C.3    50  ILE50       0.2035
     79  O         -8.7490    8.4070   25.7160 O.3    50  ILE50      -0.2185
     80  CB        -9.4590   11.0550   24.9300 C.3    50  ILE50       0.0226
     81  CG1       -8.2630   11.8500   24.3740 C.3    50  ILE50       0.0018
     82  CG2      -10.8220   11.7530   24.7820 C.3    50  ILE50       0.0018
     83  CD1       -7.3700   10.9390   23.4580 C.3    50  ILE50       0.0001
     84  N          0.1650   16.7450   29.7120 N.3    81  PRO81      -0.2102
     85  CA         0.8890   17.4780   28.6480 C.3    81  PRO81       0.1504
     86  C          0.6970   18.9840   28.8300 C.2    81  PRO81       0.2575
     87  O          1.5210   19.7810   28.3650 O.2    81  PRO81      -0.2718
     88  CB         0.3300   16.9260   27.3510 C.3    81  PRO81       0.0282
     89  CG        -0.7510   15.9590   27.6920 C.3    81  PRO81       0.0208
     90  CD        -1.0180   16.0170   29.1970 C.3    81  PRO81       0.0893
     91  N         -0.3750   19.4210   29.4940 N.am   82  VAL82      -0.1980
     92  CA        -0.6890   20.8200   29.7520 C.3    82  VAL82       0.1595
     93  C         -1.2800   21.0390   31.1440 C.2    82  VAL82       0.2287
     94  O         -1.8580   20.1460   31.7640 O.2    82  VAL82      -0.2864
     95  CB        -1.7300   21.4380   28.7790 C.3    82  VAL82       0.0276
     96  CG1       -1.1670   22.0120   27.5430 C.3    82  VAL82       0.0022
     97  CG2       -2.8980   20.5130   28.4940 C.3    82  VAL82       0.0022
     98  N         -4.0780   22.3240   33.1890 N.3    84  ILE84      -0.1245
     99  CA        -5.5090   22.4580   32.9240 C.3    84  ILE84       0.1561
    100  C         -6.2840   23.0910   34.0630 C.2    84  ILE84       0.2260
    101  O         -6.1460   22.6590   35.2330 O.2    84  ILE84      -0.2867
    102  CB        -6.1010   20.9600   32.7290 C.3    84  ILE84       0.0252
    103  CG1       -5.5450   20.3220   31.4500 C.3    84  ILE84       0.0019
    104  CG2       -7.6160   20.8730   32.7670 C.3    84  ILE84       0.0019
    105  CD1       -5.6260   18.7820   31.4090 C.3    84  ILE84       0.0001
@<TRIPOS>BOND
     1     1     2    1
     2    11     9    1
     3     8     9    2
     4     8     7    1
     5     9    10    1
     6     6     5    1
     7     6     7    1
     8     2     5    1
     9     2     3    1
    10    83    81    1
    11     3     4    2
    12    81    80    1
    13    82    80    1
    14    80    77    1
    15    79    78    1
    16    78    77    1
    17    77    76    1
    18    19    17    1
    19    88    89    1
    20    88    85    1
    21    17    18    1
    22    17    16    1
    23    76    74   am
    24    96    95    1
    25    89    90    1
    26    87    86    2
    27    97    95    1
    28    85    86    1
    29    85    84    1
    30    74    75    2
    31    74    73    1
    32    26    25   ar
    33    16    13    1
    34    95    92    1
    35    86    91   am
    36    90    84    1
    37    29    28    1
    38    29    30    1
    39    13    14    1
    40    13    12    1
    41    25    27   ar
    42    25    24    1
    43    91    92    1
    44    92    93    1
    45    73    72    1
    46    21    24    1
    47    21    20    1
    48    21    22    1
    49    14    15    1
    50    30    31    2
    51    30    32   am
    52    22    23    2
    53    72    70   am
    54    93    94    2
    55   105   103    1
    56   103   102    1
    57    32    33    1
    58    70    71    2
    59    70    69    1
    60    33    36    1
    61    33    34    1
    62   102   104    1
    63   102    99    1
    64    99    98    1
    65    99   100    1
    66    69    68    1
    67    34    35    2
    68    34    37   am
    69   100   101    2
    70    68    62   am
    71    43    42   ar
    72    37    38    1
    73    63    62    2
    74    58    57    1
    75    56    55    2
    76    67    65    1
    77    62    61    1
    78    42    44   ar
    79    42    41    1
    80    48    47    2
    81    38    41    1
    82    38    39    1
    83    65    64    1
    84    59    57    1
    85    57    54    1
    86    55    54    1
    87    64    61    1
    88    64    66    1
    89    61    60    1
    90    45    39   am
    91    45    46    1
    92    54    53    1
    93    47    46    1
    94    39    40    2
    95    46    49    1
    96    49    50    1
    97    52    50   ar
    98    50    51   ar
