@<TRIPOS>MOLECULE
tmp/1hegA00.pdb
 105 98 0 0 0
SMALL
GASTEIGER

@<TRIPOS>ATOM
      1  N         -6.6670   29.0060   21.6660 N.3     8  ARG8       -0.1197
      2  CA        -6.8480   28.3350   22.9770 C.3     8  ARG8        0.1779
      3  C         -6.9220   29.4650   24.0230 C.2     8  ARG8        0.2305
      4  O         -6.1690   30.4630   23.9150 O.2     8  ARG8       -0.2863
      5  CB        -5.7760   27.3500   23.2900 C.2     8  ARG8       -0.0007
      6  CG        -5.9090   25.8890   22.9200 C.2     8  ARG8        0.0176
      7  CD        -4.8340   24.9700   23.3710 C.3     8  ARG8        0.2464
      8  NE        -4.0150   24.3500   22.3950 N.pl3   8  ARG8       -0.0815
      9  CZ        -3.2190   23.3220   22.2350 C.cat   8  ARG8        0.5349
     10  NH1       -2.9730   22.3900   23.1370 N.pl3   8  ARG8        0.1354
     11  NH2       -2.5710   23.0820   21.0730 N.pl3   8  ARG8        0.1354
     12  N         -4.9320   26.8930   31.0300 N.3    23  LEU23      -0.1245
     13  CA        -6.0040   26.7480   30.0610 C.3    23  LEU23       0.1561
     14  C         -7.3790   26.7150   30.7430 C.2    23  LEU23       0.2260
     15  O         -7.5680   25.8260   31.6070 O.2    23  LEU23      -0.2867
     16  CB        -5.6570   25.4050   29.3910 C.3    23  LEU23       0.0270
     17  CG        -6.3270   25.1530   28.0470 C.3    23  LEU23       0.0019
     18  CD1       -6.4920   23.6590   27.8250 C.3    23  LEU23       0.0001
     19  CD2       -7.6320   25.8920   28.1230 C.3    23  LEU23       0.0001
     20  N        -10.7560   25.5110   31.0140 N.3    25  ASP25      -0.1239
     21  CA       -11.4590   24.3410   30.4300 C.3    25  ASP25       0.1674
     22  C        -12.8010   23.9920   30.9740 C.2    25  ASP25       0.2266
     23  O        -12.8250   23.3470   32.0210 O.2    25  ASP25      -0.2867
     24  CB       -10.4020   23.2120   30.5640 C.3    25  ASP25       0.1410
     25  CG       -10.7660   21.9580   29.8170 C.2    25  ASP25       0.3668
     26  OD1      -11.6250   22.0580   28.9310 O.co2  25  ASP25      -0.2456
     27  OD2      -10.1990   20.9080   30.0780 O.co2  25  ASP25      -0.2456
     28  N        -14.8290   21.7190   29.9750 N.3    27  GLY27      -0.1210
     29  CA       -15.0900   20.2510   29.9530 C.3    27  GLY27       0.1956
     30  C        -14.2530   19.5060   30.9950 C.2    27  GLY27       0.2612
     31  O        -14.0270   18.2710   30.9700 O.2    27  GLY27      -0.2717
     32  N        -13.7820   20.2310   31.9780 N.am   28  ALA28      -0.1965
     33  CA       -12.9270   19.7240   33.0560 C.3    28  ALA28       0.1728
     34  C        -13.5370   20.0400   34.4030 C.2    28  ALA28       0.2616
     35  O        -13.6090   21.1860   34.8180 O.2    28  ALA28      -0.2715
     36  CB       -11.5380   20.2850   32.8870 C.3    28  ALA28       0.0334
     37  N        -13.9510   18.9580   35.0320 N.am   29  ASP29      -0.1957
     38  CA       -14.6060   18.8870   36.3360 C.3    29  ASP29       0.1840
     39  C        -13.6230   19.3150   37.4440 C.2    29  ASP29       0.2622
     40  O        -13.9930   19.8090   38.5210 O.2    29  ASP29      -0.2715
     41  CB       -15.0960   17.4550   36.5400 C.3    29  ASP29       0.1450
     42  CG       -16.0680   16.8010   35.6270 C.2    29  ASP29       0.3671
     43  OD1      -16.7080   17.4650   34.7880 O.co2  29  ASP29      -0.2456
     44  OD2      -16.2940   15.5430   35.6540 O.co2  29  ASP29      -0.2456
     45  N        -12.3650   19.1240   37.1000 N.am   30  ASP30      -0.1971
     46  CA       -11.1920   19.3600   37.9420 C.3    30  ASP30       0.1709
     47  C        -10.0020   20.1480   37.4710 C.2    30  ASP30       0.2293
     48  O         -9.7450   20.2060   36.2670 O.2    30  ASP30      -0.2864
     49  CB       -10.7130   17.8530   38.2130 C.3    30  ASP30       0.1436
     50  CG       -11.4640   17.4980   39.5000 C.2    30  ASP30       0.3671
     51  OD1      -11.3430   18.3720   40.3990 O.co2  30  ASP30      -0.2456
     52  OD2      -12.0900   16.4390   39.4440 O.co2  30  ASP30      -0.2456
     53  N         -6.1010   20.4000   37.3100 N.3    32  VAL32      -0.1245
     54  CA        -4.9190   19.5700   37.2230 C.3    32  VAL32       0.1561
     55  C         -3.7780   20.3390   36.4990 C.2    32  VAL32       0.2260
     56  O         -3.8620   20.8040   35.3450 O.2    32  VAL32      -0.2867
     57  CB        -5.1650   18.2100   36.5190 C.3    32  VAL32       0.0252
     58  CG1       -5.6810   18.4240   35.1250 C.3    32  VAL32       0.0019
     59  CG2       -3.8880   17.4040   36.5290 C.3    32  VAL32       0.0019
     60  N         -7.7820   10.2810   38.0340 N.3    47  ILE47      -0.1231
     61  CA        -8.6570   11.0640   37.1880 C.3    47  ILE47       0.1692
     62  C         -8.5530   10.4430   35.7990 C.2    47  ILE47       0.2593
     63  O         -7.5900    9.6900   35.5460 O.2    47  ILE47      -0.2718
     64  CB        -8.3450   12.5920   37.2530 C.3    47  ILE47       0.0266
     65  CG1       -6.7970   12.8220   37.4440 C.3    47  ILE47       0.0019
     66  CG2       -9.1200   13.3890   38.3230 C.3    47  ILE47       0.0020
     67  CD1       -6.0890   13.1590   36.1250 C.3    47  ILE47       0.0001
     68  N         -9.5070   10.7330   34.9390 N.am   48  GLY48      -0.1942
     69  CA        -9.5550   10.2130   33.5720 C.3    48  GLY48       0.2014
     70  C         -9.6750   11.3010   32.5310 C.2    48  GLY48       0.2639
     71  O        -10.2120   12.3830   32.7810 O.2    48  GLY48      -0.2714
     72  N         -9.1550   11.0130   31.3690 N.am   49  GLY49      -0.1939
     73  CA        -9.1600   11.9740   30.2200 C.3    49  GLY49       0.2014
     74  C         -9.4870   11.1090   29.0060 C.2    49  GLY49       0.2635
     75  O         -9.7310    9.9070   29.2660 O.2    49  GLY49      -0.2714
     76  N         -9.4790   11.6480   27.8130 N.am   50  ILE50      -0.2030
     77  CA        -9.8060   10.8200   26.6580 C.3    50  ILE50       0.1282
     78  C         -8.9720    9.5470   26.5530 C.3    50  ILE50       0.2035
     79  O         -9.5940    8.4450   26.3240 O.3    50  ILE50      -0.2185
     80  CB       -10.0200   11.5870   25.3210 C.3    50  ILE50       0.0226
     81  CG1       -8.8530   12.5240   24.9800 C.3    50  ILE50       0.0018
     82  CG2      -11.4420   12.2710   25.3200 C.3    50  ILE50       0.0018
     83  CD1       -7.5290   11.6850   24.8000 C.3    50  ILE50       0.0001
     84  N         -0.2570   17.1950   29.9910 N.3    81  PRO81      -0.2102
     85  CA         0.3460   17.9280   28.8760 C.3    81  PRO81       0.1504
     86  C          0.3200   19.4430   29.0410 C.2    81  PRO81       0.2575
     87  O          1.3190   20.1310   28.6990 O.2    81  PRO81      -0.2718
     88  CB        -0.3890   17.4590   27.6390 C.3    81  PRO81       0.0282
     89  CG        -1.3860   16.4450   28.0630 C.3    81  PRO81       0.0208
     90  CD        -1.4280   16.4130   29.5590 C.3    81  PRO81       0.0893
     91  N         -0.7460   19.9860   29.5530 N.am   82  VAL82      -0.1980
     92  CA        -1.0820   21.3590   29.8090 C.3    82  VAL82       0.1595
     93  C         -1.7880   21.5920   31.1330 C.2    82  VAL82       0.2287
     94  O         -2.4840   20.6760   31.5750 O.2    82  VAL82      -0.2864
     95  CB        -1.9010   21.8970   28.5880 C.3    82  VAL82       0.0276
     96  CG1       -1.0230   21.6380   27.3220 C.3    82  VAL82       0.0022
     97  CG2       -3.2150   21.2690   28.3940 C.3    82  VAL82       0.0022
     98  N         -4.6470   23.0090   33.4490 N.3    84  ILE84      -0.1245
     99  CA        -6.0670   23.1650   33.2370 C.3    84  ILE84       0.1561
    100  C         -6.7280   23.7950   34.4670 C.2    84  ILE84       0.2260
    101  O         -6.3280   23.4340   35.5950 O.2    84  ILE84      -0.2867
    102  CB        -6.5700   21.6840   33.0280 C.3    84  ILE84       0.0252
    103  CG1       -5.9350   21.1500   31.7120 C.3    84  ILE84       0.0019
    104  CG2       -8.0500   21.3390   33.1840 C.3    84  ILE84       0.0019
    105  CD1       -6.0960   19.6140   31.5490 C.3    84  ILE84       0.0001
@<TRIPOS>BOND
     1    11     9    1
     2     1     2    1
     3     9     8    2
     4     9    10    1
     5     8     7    1
     6     6     5    2
     7     6     7    1
     8     2     5    1
     9     2     3    1
    10     4     3    2
    11    83    81    1
    12    81    80    1
    13    82    80    1
    14    80    77    1
    15    79    78    1
    16    78    77    1
    17    77    76    1
    18    96    95    1
    19    88    89    1
    20    88    85    1
    21    76    74   am
    22    18    17    1
    23    17    19    1
    24    17    16    1
    25    89    90    1
    26    97    95    1
    27    95    92    1
    28    87    86    2
    29    85    86    1
    30    85    84    1
    31    26    25   ar
    32    74    75    2
    33    74    73    1
    34    86    91   am
    35    16    13    1
    36    91    92    1
    37    90    84    1
    38    92    93    1
    39    25    27   ar
    40    25    24    1
    41    29    28    1
    42    29    30    1
    43    13    14    1
    44    13    12    1
    45    73    72    1
    46    21    24    1
    47    21    22    1
    48    21    20    1
    49    14    15    2
    50    31    30    2
    51    22    23    2
    52    30    32   am
    53    93    94    2
    54    72    70   am
    55   105   103    1
    56   103   102    1
    57    32    33    1
    58    70    71    2
    59    70    69    1
    60    36    33    1
    61   102   104    1
    62   102    99    1
    63    33    34    1
    64    99    98    1
    65    99   100    1
    66    69    68    1
    67    34    35    2
    68    34    37   am
    69   100   101    2
    70    43    42   ar
    71    68    62   am
    72    37    38    1
    73    58    57    1
    74    56    55    2
    75    63    62    2
    76    42    44   ar
    77    42    41    1
    78    62    61    1
    79    67    65    1
    80    48    47    2
    81    38    41    1
    82    38    39    1
    83    55    54    1
    84    57    59    1
    85    57    54    1
    86    45    39   am
    87    45    46    1
    88    61    64    1
    89    61    60    1
    90    54    53    1
    91    64    65    1
    92    64    66    1
    93    39    40    2
    94    47    46    1
    95    46    49    1
    96    49    50    1
    97    52    50   ar
    98    50    51   ar
