@<TRIPOS>MOLECULE
tmp/1hesA00.pdb
 202 200 0 0 0
SMALL
GASTEIGER

@<TRIPOS>ATOM
      1  N         56.0080   -4.9630   -5.1470 N.3    15  LEU15      -0.1231
      2  CA        55.8230   -3.5920   -5.6170 C.3    15  LEU15       0.1693
      3  C         56.0900   -2.5700   -4.5640 C.2    15  LEU15       0.2592
      4  O         55.9450   -2.8330   -3.3800 O.2    15  LEU15      -0.2718
      5  CB        54.4080   -3.3590   -6.1670 C.3    15  LEU15       0.0284
      6  CG        53.1760   -3.3540   -5.2360 C.3    15  LEU15       0.0019
      7  CD1       53.0170   -2.1090   -4.5100 C.3    15  LEU15       0.0001
      8  CD2       51.9350   -3.5240   -6.0690 C.3    15  LEU15       0.0001
      9  N         56.4210   -1.3760   -5.0240 N.am   16  PHE16      -0.1962
     10  CA        56.7680   -0.2660   -4.1480 C.3    16  PHE16       0.1771
     11  C         56.0480    1.0440   -4.4620 C.2    16  PHE16       0.2619
     12  O         56.0570    1.5030   -5.6200 O.2    16  PHE16      -0.2715
     13  CB        58.2650    0.0160   -4.3030 C.3    16  PHE16       0.0574
     14  CG        59.1340   -1.1260   -3.9290 C.ar   16  PHE16      -0.0200
     15  CD1       59.4670   -2.1300   -4.8330 C.ar   16  PHE16      -0.0042
     16  CD2       59.5890   -1.2150   -2.6470 C.ar   16  PHE16      -0.0042
     17  CE1       60.2620   -3.1840   -4.4050 C.ar   16  PHE16      -0.0003
     18  CE2       60.3710   -2.2380   -2.2440 C.ar   16  PHE16      -0.0003
     19  CZ        60.7090   -3.2260   -3.0810 C.ar   16  PHE16      -0.0000
     20  N         55.4720    1.6720   -3.4450 N.am   17  LEU17      -0.1963
     21  CA        54.8790    2.9870   -3.6260 C.3    17  LEU17       0.1728
     22  C         55.5200    4.0810   -2.8290 C.2    17  LEU17       0.2616
     23  O         55.7840    3.9420   -1.6150 O.2    17  LEU17      -0.2715
     24  CB        53.4470    2.9830   -3.1680 C.3    17  LEU17       0.0311
     25  CG        52.6080    1.9750   -3.8850 C.3    17  LEU17       0.0022
     26  CD1       51.3110    1.8270   -3.1850 C.3    17  LEU17       0.0001
     27  CD2       52.4110    2.4740   -5.2620 C.3    17  LEU17       0.0001
     28  N         55.6670    5.2070   -3.4970 N.am   18  ASP18      -0.1971
     29  CA        56.1670    6.3980   -2.8900 C.3    18  ASP18       0.1709
     30  C         55.1300    7.4960   -3.0120 C.2    18  ASP18       0.2293
     31  O         54.6510    7.8190   -4.1160 O.2    18  ASP18      -0.2864
     32  CB        57.4160    6.8750   -3.6180 C.3    18  ASP18       0.1436
     33  CG        58.5880    5.9230   -3.4840 C.2    18  ASP18       0.3671
     34  OD1       58.4930    4.9320   -2.7390 O.co2  18  ASP18      -0.2456
     35  OD2       59.6590    6.1040   -4.0790 O.co2  18  ASP18      -0.2456
     36  N         56.6990    1.4380   -8.0990 N.3    45  LYS45      -0.1245
     37  CA        57.7350    0.6180   -8.6740 C.3    45  LYS45       0.1561
     38  C         57.1930   -0.7820   -8.5980 C.2    45  LYS45       0.2260
     39  O         56.8420   -1.2290   -7.5190 O.2    45  LYS45      -0.2867
     40  CB        59.0060    0.7670   -7.9000 C.3    45  LYS45       0.0271
     41  CG        59.7450    2.0000   -8.3020 C.3    45  LYS45       0.0035
     42  CD        60.9080    2.3650   -7.3390 C.3    45  LYS45       0.0206
     43  CE        60.5640    3.4250   -6.3150 C.3    45  LYS45       0.1093
     44  NZ        61.7920    4.1830   -5.9550 N.3    45  LYS45      -0.1314
     45  N         59.9390   10.7490   13.3490 N.3   137  LEU137     -0.1245
     46  CA        61.0720   11.6850   13.3920 C.3   137  LEU137      0.1561
     47  C         61.1670   12.5860   12.1890 C.2   137  LEU137      0.2260
     48  O         61.0530   12.1450   11.0770 O.2   137  LEU137     -0.2867
     49  CB        62.3810   10.9120   13.3940 C.3   137  LEU137      0.0270
     50  CG        62.7540   10.3370   14.7280 C.3   137  LEU137      0.0019
     51  CD1       64.1180    9.7930   14.6140 C.3   137  LEU137      0.0001
     52  CD2       62.7310   11.3980   15.7860 C.3   137  LEU137      0.0001
     53  N         63.5660   14.8640    9.8800 N.3   139  GLN139     -0.1245
     54  CA        64.9520   14.8890    9.6670 C.3   139  GLN139      0.1566
     55  C         65.2390   16.0870    8.7870 C.2   139  GLN139      0.2260
     56  O         64.3420   16.5910    8.1650 O.2   139  GLN139     -0.2867
     57  CB        65.3420   13.5320    9.1200 C.3   139  GLN139      0.0367
     58  CG        65.6310   13.4430    7.6960 C.3   139  GLN139      0.0905
     59  CD        66.1240   12.0570    7.3690 C.2   139  GLN139      0.2608
     60  OE1       66.1500   11.1400    8.2670 O.2   139  GLN139     -0.2717
     61  NE2       66.4750   11.8540    6.0850 N.am  139  GLN139     -0.0878
     62  N         67.6330   15.7080   13.6330 N.3   178  ARG178     -0.1245
     63  CA        66.3750   14.9590   13.8000 C.3   178  ARG178      0.1563
     64  C         65.5850   15.5350   14.9110 C.2   178  ARG178      0.2260
     65  O         66.1510   16.0140   15.8550 O.2   178  ARG178     -0.2867
     66  CB        66.6020   13.4670   14.0990 C.3   178  ARG178      0.0307
     67  CG        68.0180   13.0530   13.9100 C.3   178  ARG178      0.0489
     68  CD        68.2470   11.8040   13.0170 C.3   178  ARG178      0.2205
     69  NE        67.7950   11.9240   11.6200 N.pl3 178  ARG178     -0.0865
     70  CZ        68.6000   11.9420   10.5520 C.cat 178  ARG178      0.5346
     71  NH1       69.9230   11.9060   10.6530 N.pl3 178  ARG178      0.1354
     72  NH2       68.0650   12.0060    9.3450 N.pl3 178  ARG178      0.1354
     73  N         62.0540   17.4140    6.3530 N.3   212  GLU212     -0.1231
     74  CA        61.5190   16.2700    5.6190 C.3   212  GLU212      0.1699
     75  C         60.8500   15.4360    6.7010 C.2   212  GLU212      0.2592
     76  O         61.3910   15.3450    7.8010 O.2   212  GLU212     -0.2718
     77  CB        62.6090   15.4860    4.9220 C.3   212  GLU212      0.0402
     78  CG        63.4680   16.3330    3.9810 C.3   212  GLU212      0.1161
     79  CD        64.3470   15.5150    2.9830 C.2   212  GLU212      0.3649
     80  OE1       64.8540   14.4380    3.4460 O.co2 212  GLU212     -0.2457
     81  OE2       64.5470   15.9560    1.7550 O.co2 212  GLU212     -0.2457
     82  N         59.6430   14.9250    6.4330 N.am  213  VAL213     -0.1966
     83  CA        58.8980   14.1140    7.3900 C.3   213  VAL213      0.1712
     84  C         58.4020   12.8630    6.7440 C.2   213  VAL213      0.2458
     85  O         58.1200   12.8170    5.5760 O.2   213  VAL213     -0.2730
     86  CB        57.6360   14.7990    7.8240 C.3   213  VAL213      0.0289
     87  CG1       57.9000   16.1430    8.3860 C.3   213  VAL213      0.0023
     88  CG2       56.7200   14.9750    6.6540 C.3   213  VAL213      0.0023
     89  N         58.2190   11.8310    7.5120 N.am  214  PRO214     -0.2727
     90  CA        57.8100   10.5570    6.9610 C.3   214  PRO214      0.1402
     91  C         56.3410   10.3550    6.9650 C.2   214  PRO214      0.2269
     92  O         55.9520    9.2550    7.2820 O.2   214  PRO214     -0.2865
     93  CB        58.4190    9.5650    7.9020 C.3   214  PRO214      0.0296
     94  CG        58.7120   10.3230    9.1240 C.3   214  PRO214      0.0237
     95  CD        58.4250   11.7440    8.9460 C.3   214  PRO214      0.0939
     96  N         47.6300    5.4800    2.0630 N.3   222  VAL222     -0.1231
     97  CA        47.3980    4.4460    1.1090 C.3   222  VAL222      0.1692
     98  C         46.6690    3.3740    1.8460 C.2   222  VAL222      0.2592
     99  O         46.9620    3.0780    2.9710 O.2   222  VAL222     -0.2718
    100  CB        48.6760    3.9280    0.5620 C.3   222  VAL222      0.0266
    101  CG1       48.3920    2.8350   -0.3610 C.3   222  VAL222      0.0020
    102  CG2       49.3770    5.0650   -0.1060 C.3   222  VAL222      0.0020
    103  N         45.6760    2.8310    1.1910 N.am  223  ARG223     -0.1966
    104  CA        44.8900    1.7840    1.7580 C.3   223  ARG223      0.1729
    105  C         45.1000    0.5230    1.0540 C.2   223  ARG223      0.2616
    106  O         45.1180   -0.4870    1.6910 O.2   223  ARG223     -0.2715
    107  CB        43.3970    2.0070    1.5880 C.3   223  ARG223      0.0348
    108  CG        42.9140    3.0090    2.4650 C.3   223  ARG223      0.0492
    109  CD        41.5790    2.6830    2.9760 C.3   223  ARG223      0.2205
    110  NE        41.1300    3.6080    4.0000 N.pl3 223  ARG223     -0.0865
    111  CZ        39.8560    3.7460    4.3040 C.cat 223  ARG223      0.5346
    112  NH1       38.9490    3.0140    3.6340 N.pl3 223  ARG223      0.1354
    113  NH2       39.4890    4.6100    5.2470 N.pl3 223  ARG223      0.1354
    114  N         45.0790    0.4940   -0.2710 N.am  224  TYR224     -0.1960
    115  CA        45.2900   -0.8110   -0.8650 C.3   224  TYR224      0.1771
    116  C         45.7140   -0.6960   -2.2610 C.2   224  TYR224      0.2619
    117  O         45.4420    0.2810   -2.9120 O.2   224  TYR224     -0.2715
    118  CB        44.0310   -1.6950   -0.7520 C.3   224  TYR224      0.0574
    119  CG        42.8840   -1.1770   -1.5990 C.ar  224  TYR224     -0.0198
    120  CD1       42.9920   -1.1620   -2.9680 C.ar  224  TYR224     -0.0009
    121  CD2       41.7480   -0.6530   -1.0320 C.ar  224  TYR224     -0.0009
    122  CE1       42.0030   -0.6450   -3.7400 C.ar  224  TYR224      0.0417
    123  CE2       40.7640   -0.1720   -1.7680 C.ar  224  TYR224      0.0417
    124  CZ        40.8860   -0.1430   -3.1330 C.ar  224  TYR224      0.1957
    125  OH        39.8970    0.3890   -3.9300 O.3   224  TYR224     -0.2866
    126  N         46.3620   -1.7530   -2.7100 N.am  225  LEU225     -0.1977
    127  CA        46.8290   -1.8430   -4.0480 C.3   225  LEU225      0.1596
    128  C         46.5560   -3.2780   -4.3590 C.2   225  LEU225      0.2287
    129  O         47.3440   -4.1320   -4.0150 O.2   225  LEU225     -0.2864
    130  CB        48.3040   -1.5400   -4.1040 C.3   225  LEU225      0.0297
    131  CG        48.7830   -1.5310   -5.5370 C.3   225  LEU225      0.0022
    132  CD1       47.7880   -0.7480   -6.2930 C.3   225  LEU225      0.0001
    133  CD2       50.1010   -0.8870   -5.6860 C.3   225  LEU225      0.0001
    134  N         54.3090   -8.9700   -2.4870 N.3   240  ILE240     -0.1231
    135  CA        54.8430   -8.2530   -1.3550 C.3   240  ILE240      0.1692
    136  C         54.7110   -6.7830   -1.6090 C.2   240  ILE240      0.2592
    137  O         55.1540   -6.2770   -2.6200 O.2   240  ILE240     -0.2718
    138  CB        56.2870   -8.5470   -1.1820 C.3   240  ILE240      0.0266
    139  CG1       56.5080  -10.0410   -0.9200 C.3   240  ILE240      0.0019
    140  CG2       56.7880   -7.6480   -0.0850 C.3   240  ILE240      0.0020
    141  CD1       57.7720  -10.5650   -1.5360 C.3   240  ILE240      0.0001
    142  N         54.1270   -6.0810   -0.6930 N.am  241  LYS241     -0.1966
    143  CA        53.8490   -4.7090   -0.9900 C.3   241  LYS241      0.1728
    144  C         54.3710   -3.6710   -0.0400 C.2   241  LYS241      0.2616
    145  O         54.1260   -3.7230    1.1410 O.2   241  LYS241     -0.2715
    146  CB        52.3500   -4.5440   -1.0520 C.3   241  LYS241      0.0311
    147  CG        51.6590   -5.5230   -1.9170 C.3   241  LYS241      0.0038
    148  CD        50.2000   -5.4310   -1.5930 C.3   241  LYS241      0.0206
    149  CE        49.3360   -6.1860   -2.6180 C.3   241  LYS241      0.1093
    150  NZ        47.8620   -6.1800   -2.2810 N.3   241  LYS241     -0.1314
    151  N         55.0300   -2.6610   -0.5400 N.am  242  TRP242     -0.1960
    152  CA        55.6270   -1.7230    0.3880 C.3   242  TRP242      0.1771
    153  C         55.1940   -0.3950    0.0710 C.2   242  TRP242      0.2620
    154  O         55.0230   -0.0060   -1.0170 O.2   242  TRP242     -0.2715
    155  CB        57.1270   -1.6730    0.2640 C.3   242  TRP242      0.0590
    156  CG        57.7480   -2.9510    0.3200 C.ar  242  TRP242      0.0006
    157  CD1       57.9750   -3.8020   -0.6990 C.ar  242  TRP242      0.0946
    158  CD2       58.2640   -3.5470    1.4900 C.ar  242  TRP242      0.0152
    159  NE1       58.5820   -4.9300   -0.2020 N.ar  242  TRP242     -0.2442
    160  CE2       58.7800   -4.7690    1.1350 C.ar  242  TRP242      0.0810
    161  CE3       58.3560   -3.1430    2.8120 C.ar  242  TRP242      0.0012
    162  CZ2       59.3740   -5.5740    1.9980 C.ar  242  TRP242      0.0191
    163  CZ3       58.9450   -3.9260    3.6820 C.ar  242  TRP242      0.0001
    164  CH2       59.4350   -5.1470    3.2980 C.ar  242  TRP242      0.0015
    165  N         55.1000    0.4160    1.0180 N.am  243  VAL243     -0.1963
    166  CA        54.6570    1.7180    0.7150 C.3   243  VAL243      0.1727
    167  C         55.5390    2.5470    1.6710 C.2   243  VAL243      0.2616
    168  O         56.0070    2.0630    2.6990 O.2   243  VAL243     -0.2715
    169  CB        53.1920    1.8040    1.1120 C.3   243  VAL243      0.0290
    170  CG1       53.0300    1.4700    2.6220 C.3   243  VAL243      0.0023
    171  CG2       52.7330    3.1430    1.0100 C.3   243  VAL243      0.0023
    172  N         55.7470    3.7840    1.3080 N.am  244  ARG244     -0.1963
    173  CA        56.5280    4.7150    2.1310 C.3   244  ARG244      0.1729
    174  C         56.1910    6.1360    1.7550 C.2   244  ARG244      0.2616
    175  O         56.0340    6.4360    0.5820 O.2   244  ARG244     -0.2715
    176  CB        58.0270    4.6020    1.8950 C.3   244  ARG244      0.0348
    177  CG        58.6940    5.6080    0.9000 C.3   244  ARG244      0.0492
    178  CD        60.1790    5.3100    0.6540 C.3   244  ARG244      0.2205
    179  NE        60.5730    5.6250   -0.7330 N.pl3 244  ARG244     -0.0865
    180  CZ        61.8150    5.9140   -1.1210 C.cat 244  ARG244      0.5346
    181  NH1       62.8070    5.9290   -0.2620 N.pl3 244  ARG244      0.1354
    182  NH2       62.1010    6.1670   -2.3520 N.pl3 244  ARG244      0.1354
    183  N         56.1040    7.0040    2.7500 N.am  245  TYR245     -0.1960
    184  CA        55.7160    8.3980    2.5710 C.3   245  TYR245      0.1771
    185  C         56.8650    9.3820    2.8440 C.2   245  TYR245      0.2619
    186  O         57.4500    9.3350    3.9080 O.2   245  TYR245     -0.2715
    187  CB        54.5810    8.7250    3.5680 C.3   245  TYR245      0.0574
    188  CG        53.3240    7.8670    3.4630 C.ar  245  TYR245     -0.0198
    189  CD1       53.2070    6.7290    4.1870 C.ar  245  TYR245     -0.0009
    190  CD2       52.2650    8.2300    2.6590 C.ar  245  TYR245     -0.0009
    191  CE1       52.1140    5.9590    4.1170 C.ar  245  TYR245      0.0417
    192  CE2       51.1430    7.4330    2.5610 C.ar  245  TYR245      0.0417
    193  CZ        51.0830    6.2920    3.3110 C.ar  245  TYR245      0.1957
    194  OH        50.0050    5.4340    3.2930 O.3   245  TYR245     -0.2866
    195  N         57.1490   10.2970    1.9310 N.am  246  ILE246     -0.1977
    196  CA        58.2320   11.2780    2.1130 C.3   246  ILE246      0.1596
    197  C         57.7160   12.7150    1.9640 C.2   246  ILE246      0.2287
    198  O         57.5800   13.2560    0.8420 O.2   246  ILE246     -0.2864
    199  CB        59.3800   11.1760    1.0890 C.3   246  ILE246      0.0276
    200  CG1       60.2350    9.9250    1.1810 C.3   246  ILE246      0.0022
    201  CG2       60.2930   12.2580    1.4640 C.3   246  ILE246      0.0022
    202  CD1       60.4960    9.3440   -0.0860 C.3   246  ILE246      0.0001
@<TRIPOS>BOND
     1    37    38    1
     2    37    36    1
     3    37    40    1
     4    38    39    2
     5    41    40    1
     6    41    42    1
     7    42    43    1
     8    43    44    1
     9   132   131    1
    10     5     2    1
    11     5     6    1
    12     8     6    1
    13   133   131    1
    14    12    11    2
    15     2     1    1
    16     2     3    1
    17   131   130    1
    18    27    25    1
    19     6     7    1
    20     9     3   am
    21     9    10    1
    22    15    17   ar
    23    15    14   ar
    24     3     4    2
    25    11    10    1
    26    11    20   am
    27    17    19   ar
    28   128   127    1
    29   128   129    2
    30    13    10    1
    31    13    14    1
    32    31    30    2
    33   130   127    1
    34    35    33   ar
    35   127   126    1
    36   125   124    1
    37    14    16   ar
    38    25    26    1
    39    25    24    1
    40   122   124   ar
    41   122   120   ar
    42    21    20    1
    43    21    24    1
    44    21    22    1
    45    32    33    1
    46    32    29    1
    47    28    29    1
    48    28    22   am
    49    33    34   ar
    50   124   123   ar
    51    19    18   ar
    52    30    29    1
    53   120   119   ar
    54   117   116    2
    55    22    23    2
    56   126   116   am
    57    16    18   ar
    58   137   136    2
    59   149   150    1
    60   149   148    1
    61   134   135    1
    62   182   180    1
    63   116   115    1
    64   147   148    1
    65   147   146    1
    66   123   121   ar
    67   136   135    1
    68   136   142   am
    69   119   121   ar
    70   119   118    1
    71   141   139    1
    72   135   138    1
    73   138   139    1
    74   138   140    1
    75   180   179    2
    76   180   181    1
    77   146   143    1
    78   154   153    2
    79   143   142    1
    80   143   144    1
    81   115   118    1
    82   115   114    1
    83   179   178    1
    84   157   159   ar
    85   157   156   ar
    86   151   144   am
    87   151   152    1
    88   101   100    1
    89   114   105   am
    90   159   160   ar
    91   102   100    1
    92   202   200    1
    93   144   145    2
    94   153   152    1
    95   153   165   am
    96   155   156    1
    97   155   152    1
    98   156   158   ar
    99   100    97    1
   100   175   174    2
   101   178   177    1
   102   166   165    1
   103   166   169    1
   104   166   167    1
   105   198   197    2
   106   177   176    1
   107   171   169    1
   108   105   106    2
   109   105   104    1
   110   199   200    1
   111   199   201    1
   112   199   196    1
   113    97    98    1
   114    97    96    1
   115   169   170    1
   116   160   158   ar
   117   160   162   ar
   118   103   104    1
   119   103    98   am
   120   172   167   am
   121   172   173    1
   122   158   161   ar
   123   107   104    1
   124   107   108    1
   125   167   168    2
   126   174   173    1
   127   174   183   am
   128    81    79   ar
   129    98    99    2
   130   176   173    1
   131   195   196    1
   132   195   185   am
   133   197   196    1
   134   162   164   ar
   135   108   109    1
   136   192   190   ar
   137   192   193   ar
   138   184   183    1
   139   184   185    1
   140   184   187    1
   141   190   188   ar
   142   161   163   ar
   143   185   186    2
   144   109   110    1
   145    79    80   ar
   146    79    78    1
   147   194   193    1
   148   164   163   ar
   149   193   191   ar
   150   188   187    1
   151   188   189   ar
   152   112   111    1
   153    78    77    1
   154   110   111    2
   155   191   189   ar
   156   111   113    1
   157    77    74    1
   158    85    84    2
   159    74    73    1
   160    74    75    1
   161    61    59   am
   162    82    75   am
   163    82    83    1
   164    88    86    1
   165    75    76    2
   166    84    83    1
   167    84    89   am
   168    90    91    1
   169    90    89    1
   170    90    93    1
   171    91    92    2
   172    59    58    1
   173    59    60    2
   174    83    86    1
   175    89    95    1
   176    58    57    1
   177    86    87    1
   178    93    94    1
   179    56    55    2
   180    55    54    1
   181    95    94    1
   182    57    54    1
   183    72    70    1
   184    54    53    1
   185    70    71    1
   186    70    69    2
   187    48    47    2
   188    69    68    1
   189    47    46    1
   190    68    67    1
   191    45    46    1
   192    46    49    1
   193    49    50    1
   194    62    63    1
   195    63    66    1
   196    63    64    1
   197    67    66    1
   198    51    50    1
   199    50    52    1
   200    64    65    2
