@<TRIPOS>MOLECULE
tmp/1hf6A00.pdb
 158 154 0 0 0
SMALL
GASTEIGER

@<TRIPOS>ATOM
      1  N         62.0060   49.2220   28.3040 N.3    32  HIS32      -0.1241
      2  CA        61.2180   49.1050   29.5200 C.3    32  HIS32       0.1621
      3  C         59.7710   48.9280   29.0940 C.2    32  HIS32       0.2264
      4  O         59.4750   48.6360   27.9430 O.2    32  HIS32      -0.2867
      5  CB        61.5390   50.3040   30.4460 C.3    32  HIS32       0.0745
      6  CG        61.1550   50.1800   31.8810 C.ar   32  HIS32       0.0817
      7  ND1       59.8470   50.2170   32.3260 N.ar   32  HIS32      -0.2268
      8  CD2       61.9610   50.1740   32.9580 C.ar   32  HIS32       0.1154
      9  CE1       59.8930   50.2240   33.6660 C.ar   32  HIS32       0.1986
     10  NE2       61.1760   50.2350   34.0630 N.ar   32  HIS32      -0.2212
     11  N         54.9880   52.9750   29.4210 N.3    36  TRP36      -0.1227
     12  CA        55.6450   54.0030   30.2660 C.3    36  TRP36       0.1737
     13  C         56.7520   54.7120   29.5110 C.2    36  TRP36       0.2595
     14  O         56.9150   55.9410   29.6960 O.2    36  TRP36      -0.2718
     15  CB        56.2540   53.3570   31.4980 C.3    36  TRP36       0.0564
     16  CG        55.2720   52.7730   32.4590 C.ar   36  TRP36       0.0003
     17  CD1       54.0700   53.3440   32.8820 C.ar   36  TRP36       0.0946
     18  CD2       55.3690   51.5180   33.1450 C.ar   36  TRP36       0.0152
     19  NE1       53.4830   52.5280   33.8010 N.ar   36  TRP36      -0.2442
     20  CE2       54.2330   51.4000   33.9660 C.ar   36  TRP36       0.0810
     21  CE3       56.2920   50.4620   33.1410 C.ar   36  TRP36       0.0012
     22  CZ2       54.0530   50.2990   34.8140 C.ar   36  TRP36       0.0191
     23  CZ3       56.1260   49.4130   33.9860 C.ar   36  TRP36       0.0001
     24  CH2       54.9880   49.3060   34.7920 C.ar   36  TRP36       0.0015
     25  N         57.5510   53.9950   28.7230 N.am   37  TYR37      -0.1976
     26  CA        58.7580   54.5180   28.1200 C.3    37  TYR37       0.1639
     27  C         58.8580   54.1710   26.6450 C.2    37  TYR37       0.2290
     28  O         59.9320   53.9230   26.0950 O.2    37  TYR37      -0.2864
     29  CB        59.9760   54.0620   28.8930 C.3    37  TYR37       0.0560
     30  CG        59.9910   54.4790   30.3420 C.ar   37  TYR37      -0.0198
     31  CD1       60.1620   55.8140   30.6860 C.ar   37  TYR37      -0.0009
     32  CD2       59.7960   53.5930   31.3790 C.ar   37  TYR37      -0.0009
     33  CE1       60.1820   56.2120   32.0190 C.ar   37  TYR37       0.0417
     34  CE2       59.7710   54.0070   32.6760 C.ar   37  TYR37       0.0417
     35  CZ        59.9390   55.3150   32.9860 C.ar   37  TYR37       0.1957
     36  OH        59.9460   55.7160   34.3280 O.3    37  TYR37      -0.2866
     37  N         54.2510   44.9760   28.4370 N.3    63  TYR63      -0.1241
     38  CA        53.4900   44.6070   29.6180 C.3    63  TYR63       0.1605
     39  C         52.0590   44.3130   29.2370 C.2    63  TYR63       0.2264
     40  O         51.4640   45.0430   28.4610 O.2    63  TYR63      -0.2867
     41  CB        53.5230   45.7320   30.6590 C.3    63  TYR63       0.0534
     42  CG        54.6940   45.7670   31.5800 C.ar   63  TYR63      -0.0201
     43  CD1       55.9530   46.2080   31.1620 C.ar   63  TYR63      -0.0009
     44  CD2       54.5440   45.4580   32.9230 C.ar   63  TYR63      -0.0009
     45  CE1       57.0200   46.3010   32.0110 C.ar   63  TYR63       0.0417
     46  CE2       55.6410   45.5690   33.7990 C.ar   63  TYR63       0.0417
     47  CZ        56.8410   46.0150   33.3540 C.ar   63  TYR63       0.1957
     48  OH        57.9450   46.2010   34.1720 O.3    63  TYR63      -0.2866
     49  N         49.6190   46.2650   34.5790 N.3    66  SER66      -0.1217
     50  CA        50.3300   47.4800   34.9640 C.3    66  SER66       0.1889
     51  C         50.1300   48.5820   33.9370 C.2    66  SER66       0.2288
     52  O         51.0100   49.3360   33.6470 O.2    66  SER66      -0.2866
     53  CB        51.8160   47.2210   35.1990 C.3    66  SER66       0.2089
     54  OG        52.0350   46.2050   36.1460 O.3    66  SER66      -0.2183
     55  N         54.6920   40.5280   28.1510 N.3    98  HIS98      -0.1241
     56  CA        55.4750   40.8000   29.3430 C.3    98  HIS98       0.1621
     57  C         54.5760   40.7020   30.6090 C.2    98  HIS98       0.2264
     58  O         54.2310   41.7080   31.2440 O.2    98  HIS98      -0.2867
     59  CB        56.1710   42.1580   29.2340 C.3    98  HIS98       0.0745
     60  CG        57.2680   42.3780   30.2050 C.ar   98  HIS98       0.0817
     61  ND1       58.5860   42.0550   29.9320 N.ar   98  HIS98      -0.2268
     62  CD2       57.2340   42.9120   31.4670 C.ar   98  HIS98       0.1154
     63  CE1       59.3000   42.4380   30.9800 C.ar   98  HIS98       0.1986
     64  NE2       58.5290   42.9620   31.9170 N.ar   98  HIS98      -0.2212
     65  N         53.9090   39.8380   34.5170 N.3   100  LEU100     -0.1245
     66  CA        54.6900   40.0540   35.7320 C.3   100  LEU100      0.1561
     67  C         53.7360   39.9880   36.9370 C.2   100  LEU100      0.2260
     68  O         53.6360   38.9590   37.5890 O.2   100  LEU100     -0.2867
     69  CB        55.4740   41.3530   35.6620 C.3   100  LEU100      0.0270
     70  CG        56.4640   41.5690   36.8210 C.3   100  LEU100      0.0019
     71  CD1       57.5360   40.5490   36.8300 C.3   100  LEU100      0.0001
     72  CD2       57.0700   42.9210   36.7530 C.3   100  LEU100      0.0001
     73  N         56.8830   36.5240   29.6980 N.3   135  ASN135     -0.1225
     74  CA        58.1070   37.0430   30.2780 C.3   135  ASN135      0.1785
     75  C         58.5540   36.3130   31.5480 C.2   135  ASN135      0.2597
     76  O         59.6290   35.6620   31.5540 O.2   135  ASN135     -0.2718
     77  CB        57.8880   38.5430   30.5680 C.3   135  ASN135      0.1169
     78  CG        58.9440   39.1370   31.4590 C.2   135  ASN135      0.2627
     79  OD1       60.1280   39.0070   31.1880 O.2   135  ASN135     -0.2716
     80  ND2       58.5370   39.8040   32.5280 N.am  135  ASN135     -0.0877
     81  N         57.8210   36.4860   32.6540 N.am  136  GLU136     -0.1979
     82  CA        58.2390   36.0130   33.9790 C.3   136  GLU136      0.1602
     83  C         57.0530   35.4350   34.7490 C.2   136  GLU136      0.2287
     84  O         56.5080   36.0940   35.6430 O.2   136  GLU136     -0.2864
     85  CB        58.9110   37.1060   34.7900 C.3   136  GLU136      0.0415
     86  CG        60.3200   37.3450   34.3390 C.3   136  GLU136      0.1163
     87  CD        61.1060   38.3000   35.1760 C.2   136  GLU136      0.3649
     88  OE1       60.5750   38.9140   36.1470 O.co2 136  GLU136     -0.2457
     89  OE2       62.3040   38.4800   34.9210 O.co2 136  GLU136     -0.2457
     90  N         69.8420   39.0170   37.7000 N.3   199  TYR199     -0.1241
     91  CA        70.1320   40.3810   38.1330 C.3   199  TYR199      0.1605
     92  C         71.4240   40.3180   38.9270 C.2   199  TYR199      0.2264
     93  O         71.5580   39.4820   39.8590 O.2   199  TYR199     -0.2867
     94  CB        68.8960   40.9650   38.9160 C.3   199  TYR199      0.0534
     95  CG        67.6360   40.8070   38.0190 C.ar  199  TYR199     -0.0201
     96  CD1       67.4000   41.6330   36.9940 C.ar  199  TYR199     -0.0009
     97  CD2       66.8520   39.6500   38.1140 C.ar  199  TYR199     -0.0009
     98  CE1       66.2870   41.4600   36.1210 C.ar  199  TYR199      0.0417
     99  CE2       65.8160   39.4320   37.1930 C.ar  199  TYR199      0.0417
    100  CZ        65.5320   40.3630   36.2510 C.ar  199  TYR199      0.1957
    101  OH        64.4990   40.1560   35.3170 O.3   199  TYR199     -0.2866
    102  N         66.2280   38.6150   29.4340 N.3   225  GLU225     -0.1245
    103  CA        66.2360   39.7800   30.2790 C.3   225  GLU225      0.1567
    104  C         67.3050   39.5920   31.3700 C.2   225  GLU225      0.2260
    105  O         67.2890   38.5830   32.0810 O.2   225  GLU225     -0.2867
    106  CB        64.8660   39.9800   30.9430 C.3   225  GLU225      0.0388
    107  CG        64.6870   41.3370   31.6570 C.3   225  GLU225      0.1160
    108  CD        63.3190   41.4870   32.1920 C.2   225  GLU225      0.3649
    109  OE1       62.3520   41.5600   31.4750 O.co2 225  GLU225     -0.2457
    110  OE2       63.2460   41.6500   33.4970 O.co2 225  GLU225     -0.2457
    111  N         67.3070   42.6410   41.9620 N.3   231  ALA231     -0.1231
    112  CA        66.1350   42.0340   41.3300 C.3   231  ALA231      0.1694
    113  C         64.9550   42.9430   41.2270 C.2   231  ALA231      0.2593
    114  O         64.0670   42.6920   40.4160 O.2   231  ALA231     -0.2718
    115  CB        65.7300   40.8340   42.1350 C.3   231  ALA231      0.0304
    116  N         64.9720   44.0500   41.9500 N.am  232  THR232     -0.1939
    117  CA        63.9530   45.0740   41.7920 C.3   232  THR232      0.2028
    118  C         64.1400   45.9840   40.6170 C.2   232  THR232      0.2642
    119  O         63.2250   46.8030   40.3090 O.2   232  THR232     -0.2714
    120  CB        64.0110   45.9760   43.0080 C.3   232  THR232      0.1808
    121  OG1       65.3270   46.5230   43.0830 O.3   232  THR232     -0.2208
    122  CG2       63.7240   45.2390   44.3470 C.3   232  THR232      0.0379
    123  N         65.2740   45.9090   39.9460 N.am  233  GLY233     -0.1954
    124  CA        65.6280   46.8610   38.9140 C.3   233  GLY233      0.1869
    125  C         66.3980   48.0740   39.4300 C.2   233  GLY233      0.2309
    126  O         66.7920   48.9120   38.6290 O.2   233  GLY233     -0.2863
    127  N         68.1080   44.7050   30.4120 N.3   259  TRP259     -0.1241
    128  CA        67.0310   45.5220   30.9610 C.3   259  TRP259      0.1605
    129  C         67.6230   46.7830   31.6050 C.2   259  TRP259      0.2264
    130  O         68.4050   46.5960   32.5550 O.2   259  TRP259     -0.2867
    131  CB        66.3040   44.7060   32.0270 C.3   259  TRP259      0.0550
    132  CG        65.0740   45.4110   32.5770 C.ar  259  TRP259      0.0003
    133  CD1       64.9740   46.1530   33.6900 C.ar  259  TRP259      0.0946
    134  CD2       63.7730   45.3880   31.9990 C.ar  259  TRP259      0.0152
    135  NE1       63.7190   46.6420   33.8460 N.ar  259  TRP259     -0.2442
    136  CE2       62.9310   46.1560   32.8420 C.ar  259  TRP259      0.0810
    137  CE3       63.2030   44.8020   30.8600 C.ar  259  TRP259      0.0012
    138  CZ2       61.6000   46.3600   32.5380 C.ar  259  TRP259      0.0191
    139  CZ3       61.9020   45.0250   30.5800 C.ar  259  TRP259      0.0001
    140  CH2       61.1100   45.7940   31.4250 C.ar  259  TRP259      0.0015
    141  N         64.6460   56.3090   33.2790 N.3   264  LYS264     -0.1245
    142  CA        64.1330   56.2180   34.6380 C.3   264  LYS264      0.1561
    143  C         65.2780   56.2260   35.6240 C.2   264  LYS264      0.2260
    144  O         66.3390   55.6510   35.3950 O.2   264  LYS264     -0.2867
    145  CB        63.3970   54.9200   34.8380 C.3   264  LYS264      0.0271
    146  CG        62.8280   54.7890   36.2010 C.3   264  LYS264      0.0035
    147  CD        61.8250   53.7030   36.3180 C.3   264  LYS264      0.0206
    148  CE        61.3710   53.5640   37.7730 C.3   264  LYS264      0.1093
    149  NZ        60.1560   52.7030   37.8920 N.3   264  LYS264     -0.1314
    150  N         66.5800   54.5700   38.0210 N.3   266  GLU266     -0.1245
    151  CA        66.7760   53.2830   38.7090 C.3   266  GLU266      0.1567
    152  C         68.1060   52.7700   38.1600 C.2   266  GLU266      0.2260
    153  O         68.4180   52.9990   37.0060 O.2   266  GLU266     -0.2867
    154  CB        65.6330   52.3040   38.5620 C.3   266  GLU266      0.0388
    155  CG        65.3940   51.8240   37.1390 C.3   266  GLU266      0.1160
    156  CD        64.1210   51.0530   36.9810 C.2   266  GLU266      0.3649
    157  OE1       63.3380   50.9330   37.9440 O.co2 266  GLU266     -0.2457
    158  OE2       63.9400   50.4660   35.8530 O.co2 266  GLU266     -0.2457
@<TRIPOS>BOND
     1    28    27    2
     2    27    26    1
     3     4     3    2
     4    26    25    1
     5    26    29    1
     6    55    56    1
     7     1     2    1
     8    37    38    1
     9    40    39    2
    10    25    13   am
    11    29    30    1
    12     3     2    1
    13    59    56    1
    14    59    60    1
    15    39    38    1
    16    56    57    1
    17    11    12    1
    18   102   103    1
    19    13    14    2
    20    13    12    1
    21     2     5    1
    22    38    41    1
    23    73    74    1
    24    61    60   ar
    25    61    63   ar
    26    60    62   ar
    27    12    15    1
    28    74    77    1
    29    74    75    1
    30   103   106    1
    31   103   104    1
    32    30    31   ar
    33    30    32   ar
    34   127   128    1
    35     5     6    1
    36    77    78    1
    37   139   137   ar
    38   139   140   ar
    39    57    58    2
    40    41    42    1
    41    31    33   ar
    42   137   134   ar
    43   106   107    1
    44   128   129    1
    45   128   131    1
    46    63    64   ar
    47    43    42   ar
    48    43    45   ar
    49    79    78    2
    50   104   105    2
    51    32    34   ar
    52   140   138   ar
    53    78    80   am
    54    62    64   ar
    55   109   108   ar
    56    15    16    1
    57    75    76    2
    58    75    81   am
    59    42    44   ar
    60   129   130    2
    61   107   108    1
    62     6     7   ar
    63     6     8   ar
    64   134   132   ar
    65   134   136   ar
    66    45    47   ar
    67    33    35   ar
    68   131   132    1
    69   108   110   ar
    70     7     9   ar
    71    16    17   ar
    72    16    18   ar
    73   138   136   ar
    74   132   133   ar
    75    81    82    1
    76    34    35   ar
    77   136   135   ar
    78    17    19   ar
    79    44    46   ar
    80     8    10   ar
    81    35    36    1
    82    21    18   ar
    83    21    23   ar
    84    18    20   ar
    85   141   142    1
    86    47    46   ar
    87    47    48    1
    88    52    51    2
    89     9    10   ar
    90   133   135   ar
    91    19    20   ar
    92    51    50    1
    93    20    22   ar
    94    82    83    1
    95    82    85    1
    96    23    24   ar
    97    86    85    1
    98    86    87    1
    99    65    66    1
   100    49    50    1
   101   142   145    1
   102   142   143    1
   103    83    84    2
   104    24    22   ar
   105   145   146    1
   106    89    87   ar
   107    50    53    1
   108    87    88   ar
   109    53    54    1
   110   101   100    1
   111   144   143    2
   112    69    66    1
   113    69    70    1
   114    66    67    1
   115   158   156   ar
   116    98   100   ar
   117    98    96   ar
   118   146   147    1
   119   100    99   ar
   120   147   148    1
   121    72    70    1
   122    70    71    1
   123    67    68    2
   124   156   155    1
   125   156   157   ar
   126    96    95   ar
   127   153   152    2
   128   155   154    1
   129    99    97   ar
   130    90    91    1
   131   148   149    1
   132    95    97   ar
   133    95    94    1
   134   150   151    1
   135    91    94    1
   136    91    92    1
   137   152   151    1
   138   154   151    1
   139   126   125    2
   140   124   125    1
   141   124   123    1
   142    92    93    2
   143   123   118   am
   144   119   118    2
   145   114   113    2
   146   118   117    1
   147   113   112    1
   148   113   116   am
   149   112   111    1
   150   112   115    1
   151   117   116    1
   152   117   120    1
   153   120   121    1
   154   120   122    1
