@<TRIPOS>MOLECULE
tmp/1hfpA01.pdb
 185 177 0 0 0
SMALL
GASTEIGER

@<TRIPOS>ATOM
      1  N         21.1250   11.9060   -2.7980 N.3     7  ILE7       -0.1231
      2  CA        22.2500   12.1400   -3.7300 C.3     7  ILE7        0.1692
      3  C         23.4070   11.3290   -3.1860 C.2     7  ILE7        0.2592
      4  O         23.6160   11.3630   -1.9780 O.2     7  ILE7       -0.2718
      5  CB        22.5230   13.6550   -4.0210 C.3     7  ILE7        0.0266
      6  CG1       23.4890   13.7990   -5.1990 C.3     7  ILE7        0.0019
      7  CG2       22.9700   14.4880   -2.7800 C.3     7  ILE7        0.0020
      8  CD1       23.6670   15.1940   -5.8620 C.3     7  ILE7        0.0001
      9  N         24.1180   10.5670   -4.0150 N.am    8  VAL8       -0.1966
     10  CA        25.2000    9.6520   -3.6940 C.3     8  VAL8        0.1727
     11  C         26.1130    9.3210   -4.8840 C.2     8  VAL8        0.2612
     12  O         25.6900    9.4970   -6.0440 O.2     8  VAL8       -0.2715
     13  CB        24.5730    8.2860   -3.2050 C.3     8  VAL8        0.0290
     14  CG1       23.8170    7.6230   -4.4050 C.3     8  VAL8        0.0023
     15  CG2       25.6210    7.3890   -2.5580 C.3     8  VAL8        0.0023
     16  N         27.3600    8.9860   -4.6760 N.am    9  ALA9       -0.2031
     17  CA        28.3920    8.5740   -5.6320 C.3     9  ALA9        0.1283
     18  C         28.6760    7.1710   -5.1460 C.3     9  ALA9        0.2036
     19  O         29.0700    7.1540   -3.9570 O.3     9  ALA9       -0.2185
     20  CB        29.6400    9.3740   -5.6610 C.3     9  ALA9        0.0262
     21  N         36.0920    9.3000    1.0010 N.3    22  LEU22      -0.1301
     22  CA        35.6290    8.7170   -0.2730 C.3    22  LEU22       0.1247
     23  C         36.5960    7.5950   -0.6870 C.3    22  LEU22       0.2009
     24  O         37.7740    7.8010   -0.4150 O.3    22  LEU22      -0.2188
     25  CB        35.6120    9.8500   -1.3100 C.3    22  LEU22       0.0217
     26  CG        34.4290   10.7720   -1.4670 C.3    22  LEU22       0.0015
     27  CD1       33.0490   10.1910   -1.4360 C.3    22  LEU22       0.0000
     28  CD2       34.4580   11.6950   -0.2250 C.3    22  LEU22       0.0000
     29  N         36.8870   16.4290   -9.0960 N.3    28  ARG28      -0.1245
     30  CA        36.3500   17.8130   -8.9670 C.3    28  ARG28       0.1563
     31  C         35.0820   18.1410   -9.6760 C.2    28  ARG28       0.2260
     32  O         34.3150   18.9560   -9.1020 O.2    28  ARG28      -0.2867
     33  CB        37.4120   18.9010   -9.2960 C.3    28  ARG28       0.0307
     34  CG        36.7900   19.9640  -10.2640 C.3    28  ARG28       0.0489
     35  CD        37.7340   20.3040  -11.3790 C.3    28  ARG28       0.2205
     36  NE        37.1570   20.8640  -12.6550 N.pl3  28  ARG28      -0.0865
     37  CZ        37.6080   20.5600  -13.9010 C.cat  28  ARG28       0.5346
     38  NH1       38.5100   19.5650  -14.0640 N.pl3  28  ARG28       0.1354
     39  NH2       37.3050   21.3620  -14.9780 N.pl3  28  ARG28       0.1354
     40  N         32.7760   16.0210  -10.2400 N.3    30  GLU30      -0.1231
     41  CA        31.6870   15.2370   -9.5770 C.3    30  GLU30       0.1699
     42  C         31.2380   16.0710   -8.4100 C.2    30  GLU30       0.2593
     43  O         30.0810   16.2060   -8.0100 O.2    30  GLU30      -0.2718
     44  CB        32.1360   13.8290   -9.1990 C.3    30  GLU30       0.0402
     45  CG        31.1090   12.7670   -8.9280 C.3    30  GLU30       0.1161
     46  CD        30.0640   12.8770   -7.8690 C.2    30  GLU30       0.3649
     47  OE1       30.5910   12.9900   -6.7060 O.co2  30  GLU30      -0.2457
     48  OE2       28.8200   12.8370   -7.9630 O.co2  30  GLU30      -0.2457
     49  N         32.1860   16.7240   -7.7280 N.am   31  GLY31      -0.1942
     50  CA        32.0370   17.5820   -6.5460 C.3    31  GLY31       0.2014
     51  C         31.2340   18.8360   -6.8090 C.2    31  GLY31       0.2639
     52  O         30.3620   19.3370   -6.0480 O.2    31  GLY31      -0.2714
     53  N         31.5740   19.3120   -8.0260 N.am   32  ARG32      -0.1963
     54  CA        30.8580   20.5240   -8.5410 C.3    32  ARG32       0.1729
     55  C         29.3960   20.2190   -8.8350 C.2    32  ARG32       0.2616
     56  O         28.5400   21.0630   -8.6750 O.2    32  ARG32      -0.2715
     57  CB        31.4050   21.0720   -9.8670 C.3    32  ARG32       0.0348
     58  CG        32.7080   21.8300   -9.6440 C.3    32  ARG32       0.0492
     59  CD        33.2520   22.4140  -10.9180 C.3    32  ARG32       0.2205
     60  NE        34.7160   22.5610  -10.6080 N.pl3  32  ARG32      -0.0865
     61  CZ        35.5640   22.5850  -11.6380 C.cat  32  ARG32       0.5346
     62  NH1       34.9490   22.5220  -12.8400 N.pl3  32  ARG32       0.1354
     63  NH2       36.8980   22.6150  -11.4990 N.pl3  32  ARG32       0.1354
     64  N         29.1120   19.0700   -9.3330 N.am   33  TYR33      -0.1960
     65  CA        27.7830   18.5810   -9.6650 C.3    33  TYR33       0.1771
     66  C         27.0450   18.4100   -8.2810 C.2    33  TYR33       0.2620
     67  O         25.9280   18.8840   -8.2150 O.2    33  TYR33      -0.2715
     68  CB        27.9570   17.2560  -10.3570 C.3    33  TYR33       0.0574
     69  CG        26.6810   16.4190  -10.4120 C.ar   33  TYR33      -0.0198
     70  CD1       25.8280   16.7450  -11.4570 C.ar   33  TYR33      -0.0009
     71  CD2       26.3280   15.3800   -9.5350 C.ar   33  TYR33      -0.0009
     72  CE1       24.5990   16.1060  -11.6410 C.ar   33  TYR33       0.0417
     73  CE2       25.0670   14.7260   -9.6830 C.ar   33  TYR33       0.0417
     74  CZ        24.2570   15.0850  -10.7450 C.ar   33  TYR33       0.1957
     75  OH        23.0340   14.5460  -11.1010 O.3    33  TYR33      -0.2866
     76  N         27.6980   17.7540   -7.3130 N.am   34  PHE34      -0.1960
     77  CA        27.0710   17.6490   -5.9580 C.3    34  PHE34       0.1771
     78  C         26.6120   19.0150   -5.4450 C.2    34  PHE34       0.2619
     79  O         25.5060   19.3250   -4.9970 O.2    34  PHE34      -0.2715
     80  CB        28.0850   17.0480   -4.9670 C.3    34  PHE34       0.0574
     81  CG        27.5740   17.1090   -3.5370 C.ar   34  PHE34      -0.0200
     82  CD1       26.7130   16.1380   -3.0670 C.ar   34  PHE34      -0.0042
     83  CD2       27.8190   18.2610   -2.7860 C.ar   34  PHE34      -0.0042
     84  CE1       26.1670   16.2300   -1.7690 C.ar   34  PHE34      -0.0003
     85  CE2       27.2870   18.3510   -1.4790 C.ar   34  PHE34      -0.0003
     86  CZ        26.4960   17.3240   -0.9810 C.ar   34  PHE34      -0.0000
     87  N         27.5100   19.9640   -5.5370 N.am   35  GLN35      -0.1977
     88  CA        27.2750   21.3200   -5.0910 C.3    35  GLN35       0.1601
     89  C         26.1590   22.0130   -5.8320 C.2    35  GLN35       0.2287
     90  O         25.3100   22.7070   -5.2400 O.2    35  GLN35      -0.2864
     91  CB        28.5970   22.0650   -5.2380 C.3    35  GLN35       0.0394
     92  CG        28.2140   23.5460   -5.1700 C.3    35  GLN35       0.0908
     93  CD        29.4560   24.3710   -5.2340 C.2    35  GLN35       0.2608
     94  OE1       29.3020   25.5580   -4.9280 O.2    35  GLN35      -0.2717
     95  NE2       30.6380   23.9080   -5.5860 N.am   35  GLN35      -0.0878
     96  N         29.0970   11.6580    8.1820 N.3    56  THR56      -0.1218
     97  CA        29.1940   12.4100    6.9040 C.3    56  THR56       0.1862
     98  C         29.6080   13.8610    7.1580 C.2    56  THR56       0.2287
     99  O         30.5460   14.4030    6.5160 O.2    56  THR56      -0.2866
    100  CB        27.8510   12.3650    6.0030 C.3    56  THR56       0.1770
    101  OG1       27.8410   10.9320    5.7950 O.3    56  THR56      -0.2211
    102  CG2       27.9480   13.1560    4.7290 C.3    56  THR56       0.0375
    103  N         33.2950   14.2440    7.6110 N.3    59  SER59      -0.1202
    104  CA        34.1080   13.9200    6.4390 C.3    59  SER59       0.2020
    105  C         34.1900   15.0760    5.4350 C.2    59  SER59       0.2619
    106  O         34.8700   15.0730    4.4110 O.2    59  SER59      -0.2717
    107  CB        33.4550   12.6560    5.8160 C.3    59  SER59       0.2103
    108  OG        32.4100   13.2190    5.0340 O.3    59  SER59      -0.2182
    109  N         33.5240   16.2200    5.6440 N.am   60  ILE60      -0.1966
    110  CA        33.5640   17.3540    4.7260 C.3    60  ILE60       0.1712
    111  C         34.7480   18.1600    5.2800 C.2    60  ILE60       0.2458
    112  O         34.7740   18.2680    6.5150 O.2    60  ILE60      -0.2730
    113  CB        32.2170   18.1560    4.8090 C.3    60  ILE60       0.0289
    114  CG1       30.9900   17.2230    4.4620 C.3    60  ILE60       0.0022
    115  CG2       32.2310   19.5110    4.1150 C.3    60  ILE60       0.0023
    116  CD1       29.6160   17.8990    4.7810 C.3    60  ILE60       0.0001
    117  N         35.6110   18.6830    4.4310 N.am   61  PRO61      -0.2727
    118  CA        36.7370   19.4810    4.9120 C.3    61  PRO61       0.1402
    119  C         36.1450   20.6360    5.7310 C.2    61  PRO61       0.2269
    120  O         35.1530   21.2980    5.3880 O.2    61  PRO61      -0.2865
    121  CB        37.4610   19.9180    3.6570 C.3    61  PRO61       0.0296
    122  CG        36.9580   19.0820    2.5280 C.3    61  PRO61       0.0237
    123  CD        35.6210   18.5070    2.9800 C.3    61  PRO61       0.0939
    124  N         35.0180   23.8060    4.3200 N.3    64  ASN64      -0.1296
    125  CA        33.7430   23.7740    3.5720 C.3    64  ASN64       0.1339
    126  C         32.6080   23.5760    4.5600 C.3    64  ASN64       0.2014
    127  O         31.6100   23.1260    4.0320 O.3    64  ASN64      -0.2188
    128  CB        33.7990   22.5920    2.6220 C.3    64  ASN64       0.1102
    129  CG        34.7420   22.9060    1.4760 C.2    64  ASN64       0.2623
    130  OD1       34.9100   24.0880    1.1660 O.2    64  ASN64      -0.2716
    131  ND2       35.2900   21.9180    0.8160 N.am   64  ASN64      -0.0877
    132  N         28.1150   23.6410    4.5580 N.3    67  LEU67      -0.1231
    133  CA        28.0360   23.7070    3.0320 C.3    67  LEU67       0.1693
    134  C         27.3660   25.0410    2.7510 C.2    67  LEU67       0.2591
    135  O         26.2440   25.2930    3.2710 O.2    67  LEU67      -0.2718
    136  CB        27.2280   22.4820    2.5370 C.3    67  LEU67       0.0284
    137  CG        27.9090   21.1570    2.7500 C.3    67  LEU67       0.0019
    138  CD1       26.9290   20.0810    2.2160 C.3    67  LEU67       0.0001
    139  CD2       29.2210   21.1370    1.9940 C.3    67  LEU67       0.0001
    140  N         28.0180   25.8990    1.9640 N.am   68  LYS68      -0.1980
    141  CA        27.4790   27.2370    1.7400 C.3    68  LYS68       0.1596
    142  C         26.2270   27.2920    0.8360 C.2    68  LYS68       0.2287
    143  O         26.1410   26.6040   -0.1630 O.2    68  LYS68      -0.2864
    144  CB        28.4900   28.2590    1.2290 C.3    68  LYS68       0.0298
    145  CG        28.9950   27.8170   -0.1110 C.3    68  LYS68       0.0038
    146  CD        29.6380   28.8080   -1.0960 C.3    68  LYS68       0.0206
    147  CE        31.1790   28.6040   -1.1650 C.3    68  LYS68       0.1093
    148  NZ        31.7050   28.6540    0.2770 N.3    68  LYS68      -0.1314
    149  N         23.1400   26.5180    1.8040 N.3    70  ARG70      -0.1301
    150  CA        22.2180   25.4680    2.1200 C.3    70  ARG70       0.1248
    151  C         21.9720   25.4590    3.6260 C.3    70  ARG70       0.2009
    152  O         22.8990   25.9510    4.2840 O.3    70  ARG70      -0.2188
    153  CB        22.8480   24.1450    1.5840 C.3    70  ARG70       0.0254
    154  CG        22.8940   24.1610    0.0370 C.3    70  ARG70       0.0485
    155  CD        23.9330   23.2380   -0.4840 C.3    70  ARG70       0.2205
    156  NE        25.2570   23.8510   -0.4830 N.pl3  70  ARG70      -0.0865
    157  CZ        26.3620   23.2640   -0.8900 C.cat  70  ARG70       0.5346
    158  NH1       26.4660   21.9790   -1.2510 N.pl3  70  ARG70       0.1354
    159  NH2       27.4050   24.0850   -0.9630 N.pl3  70  ARG70       0.1354
    160  N         22.1880   13.6850    1.9850 N.3   115  VAL115     -0.1245
    161  CA        23.5300   13.5190    1.4160 C.3   115  VAL115      0.1561
    162  C         24.3630   12.4350    2.0940 C.2   115  VAL115      0.2260
    163  O         25.5640   12.3150    1.8520 O.2   115  VAL115     -0.2867
    164  CB        24.1580   14.9100    1.3540 C.3   115  VAL115      0.0252
    165  CG1       23.1560   15.8880    0.7600 C.3   115  VAL115      0.0019
    166  CG2       24.6550   15.3240    2.7260 C.3   115  VAL115      0.0019
    167  N         20.3500    6.9650    4.2160 N.3   121  TYR121     -0.1241
    168  CA        19.8050    6.5320    2.8700 C.3   121  TYR121      0.1605
    169  C         18.8250    5.3780    3.0520 C.2   121  TYR121      0.2264
    170  O         17.7340    5.3950    2.4720 O.2   121  TYR121     -0.2867
    171  CB        20.9400    6.0610    1.9450 C.3   121  TYR121      0.0534
    172  CG        21.9070    7.0910    1.4140 C.ar  121  TYR121     -0.0201
    173  CD1       21.4670    8.2540    0.7920 C.ar  121  TYR121     -0.0009
    174  CD2       23.2580    6.8520    1.4790 C.ar  121  TYR121     -0.0009
    175  CE1       22.3400    9.2640    0.2760 C.ar  121  TYR121      0.0417
    176  CE2       24.1720    7.8040    0.9850 C.ar  121  TYR121      0.0417
    177  CZ        23.6710    8.9620    0.4060 C.ar  121  TYR121      0.1957
    178  OH        24.5670    9.8110   -0.0890 O.3   121  TYR121     -0.2866
    179  N         25.4510    8.8370   -8.8760 N.3   136  THR136     -0.1218
    180  CA        26.5960    8.9500   -9.7380 C.3   136  THR136      0.1862
    181  C         27.1840    7.5520   -9.6930 C.2   136  THR136      0.2287
    182  O         27.6220    7.1520   -8.5860 O.2   136  THR136     -0.2866
    183  CB        27.6390   10.0260   -9.2490 C.3   136  THR136      0.1770
    184  OG1       26.9510   11.2580   -9.0770 O.3   136  THR136     -0.2211
    185  CG2       28.9070   10.1100  -10.1170 C.3   136  THR136      0.0375
@<TRIPOS>BOND
     1    39    37    1
     2    38    37    1
     3    37    36    2
     4    62    61    1
     5    36    35    1
     6    72    70   ar
     7    72    74   ar
     8    61    63    1
     9    61    60    2
    10    70    69   ar
    11    35    34    1
    12    75    74    1
    13    59    60    1
    14    59    58    1
    15    74    73   ar
    16    69    68    1
    17    69    71   ar
    18    68    65    1
    19    34    33    1
    20    40    41    1
    21   185   183    1
    22    57    58    1
    23    57    54    1
    24   180   181    1
    25   180   183    1
    26   180   179    1
    27   181   182    2
    28    73    71   ar
    29    31    32    2
    30    31    30    1
    31    65    64    1
    32    65    66    1
    33    41    44    1
    34    41    42    1
    35    64    55   am
    36    33    30    1
    37   183   184    1
    38    44    45    1
    39    29    30    1
    40    45    46    1
    41    55    56    2
    42    55    54    1
    43    54    53    1
    44    42    43    2
    45    42    49   am
    46    66    67    2
    47    66    76   am
    48    53    51   am
    49    48    46   ar
    50    46    47   ar
    51    49    50    1
    52    76    77    1
    53    51    50    1
    54    51    52    2
    55    12    11    2
    56    77    78    1
    57    77    80    1
    58     8     6    1
    59    89    90    2
    60    89    88    1
    61    20    17    1
    62    17    18    1
    63    17    16    1
    64    95    93   am
    65    87    78   am
    66    87    88    1
    67    78    79    2
    68    91    92    1
    69    91    88    1
    70    93    92    1
    71    93    94    2
    72     6     5    1
    73    18    19    1
    74    80    81    1
    75    11    16   am
    76    11    10    1
    77    14    13    1
    78     5     2    1
    79     5     7    1
    80     9    10    1
    81     9     3   am
    82     2     3    1
    83     2     1    1
    84    10    13    1
    85    81    82   ar
    86    81    83   ar
    87    13    15    1
    88     3     4    2
    89    82    84   ar
    90    83    85   ar
    91    84    86   ar
    92    85    86   ar
    93    26    27    1
    94    26    25    1
    95    26    28    1
    96    25    22    1
    97   158   157    1
    98   147   146    1
    99   147   148    1
   100   146   145    1
   101   159   157    1
   102   157   156    2
   103    23    24    1
   104    23    22    1
   105   155   156    1
   106   155   154    1
   107    22    21    1
   108   143   142    2
   109   145   144    1
   110   178   177    1
   111   154   153    1
   112   175   177   ar
   113   175   173   ar
   114   177   176   ar
   115   165   164    1
   116   173   172   ar
   117   131   129   am
   118   142   141    1
   119   176   174   ar
   120   130   129    2
   121   144   141    1
   122   164   161    1
   123   164   166    1
   124   172   174   ar
   125   172   171    1
   126   161   160    1
   127   161   162    1
   128   129   128    1
   129   153   150    1
   130   141   140    1
   131   149   150    1
   132   163   162    2
   133   171   168    1
   134   140   134   am
   135   139   137    1
   136   150   151    1
   137   138   137    1
   138   170   169    2
   139   122   123    1
   140   122   121    1
   141   136   137    1
   142   136   133    1
   143   128   125    1
   144   134   133    1
   145   134   135    2
   146   168   169    1
   147   168   167    1
   148   123   117    1
   149   133   132    1
   150   125   124    1
   151   125   126    1
   152   151   152    1
   153   121   118    1
   154   127   126    1
   155   115   113    1
   156   106   105    2
   157   117   118    1
   158   117   111   am
   159   114   116    1
   160   114   113    1
   161   110   113    1
   162   110   111    1
   163   110   109    1
   164   102   100    1
   165   118   119    1
   166   108   107    1
   167   111   112    2
   168   120   119    2
   169   105   109   am
   170   105   104    1
   171   101   100    1
   172   107   104    1
   173   100    97    1
   174   104   103    1
   175    99    98    2
   176    97    98    1
   177    97    96    1
