@<TRIPOS>MOLECULE
tmp/1hfsA00.pdb
 222 222 0 0 0
SMALL
GASTEIGER

@<TRIPOS>ATOM
      1  N         24.3610   38.9800   14.4350 N.3    68  TYR68      -0.1241
      2  CA        25.8140   39.0770   14.5950 C.3    68  TYR68       0.1605
      3  C         26.6250   37.9650   13.9360 C.2    68  TYR68       0.2264
      4  O         26.8800   36.9190   14.5410 O.2    68  TYR68      -0.2867
      5  CB        26.1520   39.1570   16.0850 C.3    68  TYR68       0.0534
      6  CG        25.3850   40.2380   16.8050 C.ar   68  TYR68      -0.0201
      7  CD1       25.8810   41.5380   16.8800 C.ar   68  TYR68      -0.0009
      8  CD2       24.1480   39.9650   17.3950 C.ar   68  TYR68      -0.0009
      9  CE1       25.1650   42.5420   17.5220 C.ar   68  TYR68       0.0417
     10  CE2       23.4230   40.9630   18.0400 C.ar   68  TYR68       0.0417
     11  CZ        23.9370   42.2490   18.0980 C.ar   68  TYR68       0.1957
     12  OH        23.2190   43.2440   18.7190 O.3    68  TYR68      -0.2866
     13  N         40.0740   33.3190   15.0040 N.3    74  GLY74      -0.1210
     14  CA        40.4600   34.3540   15.9530 C.3    74  GLY74       0.1956
     15  C         39.3680   35.3560   16.2930 C.2    74  GLY74       0.2612
     16  O         38.1860   35.1410   15.9710 O.2    74  GLY74      -0.2717
     17  N         39.7710   36.4530   16.9350 N.am   75  ASN75      -0.1960
     18  CA        38.8670   37.5270   17.3550 C.3    75  ASN75       0.1819
     19  C         37.7220   36.9610   18.2040 C.2    75  ASN75       0.2621
     20  O         37.9900   36.3080   19.2120 O.2    75  ASN75      -0.2715
     21  CB        38.3670   38.3240   16.1430 C.3    75  ASN75       0.1195
     22  CG        39.4700   39.1430   15.4830 C.2    75  ASN75       0.2630
     23  OD1       39.6100   39.1430   14.2610 O.2    75  ASN75      -0.2716
     24  ND2       40.2550   39.8400   16.2880 N.am   75  ASN75      -0.0877
     25  N         36.4670   37.1910   17.8200 N.am   76  VAL76      -0.1963
     26  CA        35.3310   36.6590   18.5820 C.3    76  VAL76       0.1727
     27  C         35.2990   35.1230   18.4690 C.2    76  VAL76       0.2616
     28  O         35.3010   34.5660   17.3550 O.2    76  VAL76      -0.2715
     29  CB        33.9870   37.2600   18.0980 C.3    76  VAL76       0.0290
     30  CG1       32.8160   36.6120   18.8290 C.3    76  VAL76       0.0023
     31  CG2       33.9730   38.7590   18.3350 C.3    76  VAL76       0.0023
     32  N         35.3120   34.4490   19.6150 N.am   77  LEU77      -0.1963
     33  CA        35.3080   32.9900   19.6710 C.3    77  LEU77       0.1728
     34  C         33.9040   32.3980   19.7470 C.2    77  LEU77       0.2616
     35  O         33.6650   31.2840   19.2810 O.2    77  LEU77      -0.2715
     36  CB        36.1160   32.5070   20.8780 C.3    77  LEU77       0.0311
     37  CG        37.5610   32.9910   21.0020 C.3    77  LEU77       0.0022
     38  CD1       38.1780   32.4180   22.2640 C.3    77  LEU77       0.0001
     39  CD2       38.3610   32.5780   19.7810 C.3    77  LEU77       0.0001
     40  N         32.9830   33.1460   20.3350 N.am   78  ALA78      -0.1963
     41  CA        31.6090   32.6920   20.4950 C.3    78  ALA78       0.1728
     42  C         30.7910   33.8430   21.0570 C.2    78  ALA78       0.2616
     43  O         31.3420   34.8970   21.3920 O.2    78  ALA78      -0.2715
     44  CB        31.5730   31.5120   21.4720 C.3    78  ALA78       0.0334
     45  N         29.4740   33.6620   21.1110 N.am   79  HIS79      -0.1959
     46  CA        28.5880   34.6630   21.6950 C.3    79  HIS79       0.1787
     47  C         27.3450   34.0070   22.2740 C.2    79  HIS79       0.2620
     48  O         26.8810   32.9860   21.7690 O.2    79  HIS79      -0.2715
     49  CB        28.2600   35.8430   20.7430 C.3    79  HIS79       0.0785
     50  CG        27.6040   35.4680   19.4420 C.ar   79  HIS79       0.0821
     51  ND1       27.9340   36.0440   18.2340 N.ar   79  HIS79      -0.2267
     52  CD2       26.5700   34.6290   19.1720 C.ar   79  HIS79       0.1154
     53  CE1       27.1170   35.5630   17.2920 C.ar   79  HIS79       0.1986
     54  NE2       26.2560   34.6910   17.7920 N.ar   79  HIS79      -0.2212
     55  N         26.8690   34.5420   23.3900 N.am   80  ALA80      -0.1963
     56  CA        25.6910   34.0030   24.0500 C.3    80  ALA80       0.1728
     57  C         24.7690   35.1410   24.4350 C.2    80  ALA80       0.2616
     58  O         25.2210   36.2490   24.7240 O.2    80  ALA80      -0.2715
     59  CB        26.0880   33.1930   25.2790 C.3    80  ALA80       0.0334
     60  N         23.4740   34.8580   24.4380 N.am   81  TYR81      -0.1974
     61  CA        22.4640   35.8510   24.7650 C.3    81  TYR81       0.1639
     62  C         21.9460   35.7250   26.1920 C.2    81  TYR81       0.2290
     63  O         21.8390   34.6240   26.7340 O.2    81  TYR81      -0.2864
     64  CB        21.3030   35.7460   23.7740 C.3    81  TYR81       0.0560
     65  CG        21.7090   35.9890   22.3360 C.ar   81  TYR81      -0.0198
     66  CD1       22.1470   34.9410   21.5230 C.ar   81  TYR81      -0.0009
     67  CD2       21.6430   37.2680   21.7830 C.ar   81  TYR81      -0.0009
     68  CE1       22.5030   35.1630   20.1910 C.ar   81  TYR81       0.0417
     69  CE2       21.9980   37.5000   20.4510 C.ar   81  TYR81       0.0417
     70  CZ        22.4260   36.4420   19.6640 C.ar   81  TYR81       0.1957
     71  OH        22.7600   36.6680   18.3500 O.3    81  TYR81      -0.2866
     72  N         41.7380   26.2270   21.0680 N.3   106  THR106     -0.1218
     73  CA        40.6780   26.8820   21.8130 C.3   106  THR106      0.1862
     74  C         39.8880   25.8040   22.5430 C.2   106  THR106      0.2287
     75  O         39.1510   25.0350   21.9250 O.2   106  THR106     -0.2866
     76  CB        39.7520   27.6630   20.8620 C.3   106  THR106      0.1770
     77  OG1       40.5500   28.3990   19.9260 O.3   106  THR106     -0.2211
     78  CG2       38.8860   28.6420   21.6470 C.3   106  THR106      0.0375
     79  N         36.2040   25.3810   28.5230 N.3   110  LEU110     -0.1231
     80  CA        36.4490   26.7010   29.0980 C.3   110  LEU110      0.1693
     81  C         35.5470   27.7640   28.4880 C.2   110  LEU110      0.2591
     82  O         34.8920   28.5190   29.2070 O.2   110  LEU110     -0.2718
     83  CB        37.9200   27.0980   28.9420 C.3   110  LEU110      0.0284
     84  CG        38.8980   26.2300   29.7360 C.3   110  LEU110      0.0019
     85  CD1       40.3380   26.6200   29.4180 C.3   110  LEU110      0.0001
     86  CD2       38.6070   26.3610   31.2250 C.3   110  LEU110      0.0001
     87  N         35.4930   27.8150   27.1640 N.am  111  VAL111     -0.1980
     88  CA        34.6510   28.8000   26.5050 C.3   111  VAL111      0.1595
     89  C         33.1710   28.5190   26.7730 C.2   111  VAL111      0.2287
     90  O         32.4070   29.4450   27.0420 O.2   111  VAL111     -0.2864
     91  CB        34.9330   28.8750   24.9880 C.3   111  VAL111      0.0276
     92  CG1       34.0540   29.9380   24.3380 C.3   111  VAL111      0.0022
     93  CG2       36.4090   29.1970   24.7460 C.3   111  VAL111      0.0022
     94  N         32.1010   29.7870   30.1780 N.3   114  HIS114     -0.1226
     95  CA        31.9890   31.2430   30.1400 C.3   114  HIS114      0.1752
     96  C         30.6760   31.6460   29.4630 C.2   114  HIS114      0.2595
     97  O         29.9140   32.4420   30.0130 O.2   114  HIS114     -0.2718
     98  CB        33.1920   31.8370   29.3860 C.3   114  HIS114      0.0759
     99  CG        33.1670   33.3330   29.2570 C.ar  114  HIS114      0.0818
    100  ND1       33.9860   34.1820   29.9670 N.ar  114  HIS114     -0.2268
    101  CD2       32.4260   34.1340   28.4490 C.ar  114  HIS114      0.1154
    102  CE1       33.7270   35.4430   29.5810 C.ar  114  HIS114      0.1986
    103  NE2       32.7820   35.4830   28.6540 N.ar  114  HIS114     -0.2212
    104  N         30.4100   31.0930   28.2780 N.am  115  GLU115     -0.1979
    105  CA        29.1870   31.4070   27.5360 C.3   115  GLU115      0.1602
    106  C         27.9310   31.0960   28.3420 C.2   115  GLU115      0.2287
    107  O         26.9790   31.8760   28.3360 O.2   115  GLU115     -0.2864
    108  CB        29.1380   30.6720   26.1860 C.3   115  GLU115      0.0415
    109  CG        30.2650   31.0210   25.2230 C.3   115  GLU115      0.1163
    110  CD        30.4730   32.5160   25.0710 C.2   115  GLU115      0.3649
    111  OE1       29.5120   33.2250   24.7190 O.co2 115  GLU115     -0.2457
    112  OE2       31.6020   32.9830   25.3060 O.co2 115  GLU115     -0.2457
    113  N         26.9870   33.7770   30.6470 N.3   118  HIS118     -0.1241
    114  CA        26.2220   34.8450   30.0050 C.3   118  HIS118      0.1621
    115  C         24.7640   34.4210   29.8210 C.2   118  HIS118      0.2264
    116  O         23.8490   35.2220   30.0360 O.2   118  HIS118     -0.2867
    117  CB        26.8200   35.2120   28.6420 C.3   118  HIS118      0.0745
    118  CG        28.0840   36.0160   28.7220 C.ar  118  HIS118      0.0817
    119  ND1       28.2480   37.1230   29.5230 N.ar  118  HIS118     -0.2268
    120  CD2       29.2500   35.8790   28.0470 C.ar  118  HIS118      0.1154
    121  CE1       29.4750   37.6200   29.3120 C.ar  118  HIS118      0.1986
    122  NE2       30.1410   36.9030   28.4190 N.ar  118  HIS118     -0.2212
    123  N         30.6980   40.4570   32.5830 N.3   124  HIS124     -0.1241
    124  CA        32.1090   40.1630   32.7860 C.3   124  HIS124      0.1621
    125  C         32.6350   40.6360   34.1380 C.2   124  HIS124      0.2264
    126  O         32.0390   41.4900   34.7960 O.2   124  HIS124     -0.2867
    127  CB        32.9540   40.7550   31.6550 C.3   124  HIS124      0.0745
    128  CG        32.8090   40.0330   30.3530 C.ar  124  HIS124      0.0817
    129  ND1       32.7440   40.6540   29.1260 N.ar  124  HIS124     -0.2268
    130  CD2       32.6760   38.7070   30.0960 C.ar  124  HIS124      0.1154
    131  CE1       32.5730   39.7140   28.1860 C.ar  124  HIS124      0.1986
    132  NE2       32.5230   38.5040   28.7160 N.ar  124  HIS124     -0.2212
    133  N         41.7020   36.4990   36.7050 N.3   129  GLU129     -0.1231
    134  CA        41.6530   35.0590   36.8930 C.3   129  GLU129      0.1699
    135  C         40.2410   34.4840   36.9550 C.2   129  GLU129      0.2592
    136  O         40.0650   33.2690   37.0620 O.2   129  GLU129     -0.2718
    137  CB        42.4280   34.6810   38.1460 C.3   129  GLU129      0.0402
    138  CG        43.8770   35.1050   38.0830 C.3   129  GLU129      0.1161
    139  CD        44.6860   34.5430   39.2170 C.2   129  GLU129      0.3649
    140  OE1       45.1190   33.3780   39.1070 O.co2 129  GLU129     -0.2457
    141  OE2       44.8780   35.2640   40.2160 O.co2 129  GLU129     -0.2457
    142  N         39.2380   35.3520   36.8930 N.am  130  ALA130     -0.1966
    143  CA        37.8510   34.9060   36.9400 C.3   130  ALA130      0.1728
    144  C         37.4620   34.2610   35.6160 C.2   130  ALA130      0.2616
    145  O         37.9990   34.6050   34.5630 O.2   130  ALA130     -0.2715
    146  CB        36.9290   36.0810   37.2360 C.3   130  ALA130      0.0334
    147  N         36.5530   33.2980   35.6750 N.am  131  LEU131     -0.1977
    148  CA        36.0710   32.6480   34.4670 C.3   131  LEU131      0.1596
    149  C         35.4100   33.7000   33.5790 C.2   131  LEU131      0.2287
    150  O         35.5700   33.6800   32.3600 O.2   131  LEU131     -0.2864
    151  CB        35.0450   31.5630   34.8100 C.3   131  LEU131      0.0297
    152  CG        34.3150   30.9530   33.6060 C.3   131  LEU131      0.0022
    153  CD1       35.3170   30.2760   32.6700 C.3   131  LEU131      0.0001
    154  CD2       33.2470   29.9710   34.0690 C.3   131  LEU131      0.0001
    155  N         36.1420   36.7250   32.8880 N.3   133  TYR133     -0.1228
    156  CA        37.0110   37.7970   32.3950 C.3   133  TYR133      0.1721
    157  C         36.7040   37.8770   30.8820 C.2   133  TYR133      0.2437
    158  O         36.4200   36.8570   30.2610 O.2   133  TYR133     -0.2733
    159  CB        38.4850   37.4440   32.6470 C.3   133  TYR133      0.0547
    160  CG        39.4380   38.5790   32.3530 C.ar  133  TYR133     -0.0200
    161  CD1       39.3900   39.7620   33.0930 C.ar  133  TYR133     -0.0009
    162  CD2       40.3570   38.4910   31.3100 C.ar  133  TYR133     -0.0009
    163  CE1       40.2250   40.8310   32.7980 C.ar  133  TYR133      0.0417
    164  CE2       41.1990   39.5560   31.0070 C.ar  133  TYR133      0.0417
    165  CZ        41.1260   40.7230   31.7550 C.ar  133  TYR133      0.1957
    166  OH        41.9440   41.7850   31.4530 O.3   133  TYR133     -0.2866
    167  N         36.7550   39.0810   30.2730 N.am  134  PRO134     -0.2718
    168  CA        36.4620   39.2660   28.8410 C.3   134  PRO134      0.1535
    169  C         37.3500   38.5740   27.8090 C.2   134  PRO134      0.2598
    170  O         36.8860   38.2600   26.7070 O.2   134  PRO134     -0.2715
    171  CB        36.5630   40.7870   28.6610 C.3   134  PRO134      0.0310
    172  CG        36.2870   41.3280   30.0030 C.3   134  PRO134      0.0237
    173  CD        37.0240   40.3820   30.9100 C.3   134  PRO134      0.0939
    174  N         38.6260   38.3850   28.1390 N.am  135  LEU135     -0.1964
    175  CA        39.5700   37.7940   27.1980 C.3   135  LEU135      0.1728
    176  C         39.9370   36.3510   27.5110 C.2   135  LEU135      0.2616
    177  O         40.2580   36.0130   28.6490 O.2   135  LEU135     -0.2715
    178  CB        40.8480   38.6380   27.1340 C.3   135  LEU135      0.0311
    179  CG        40.7050   40.1550   26.9660 C.3   135  LEU135      0.0022
    180  CD1       42.0770   40.7960   26.9500 C.3   135  LEU135      0.0001
    181  CD2       39.9580   40.4920   25.6940 C.3   135  LEU135      0.0001
    182  N         39.9170   35.5160   26.4780 N.am  136  TYR136     -0.1960
    183  CA        40.2590   34.1100   26.6070 C.3   136  TYR136      0.1771
    184  C         41.7720   33.9240   26.7100 C.2   136  TYR136      0.2619
    185  O         42.5450   34.6650   26.1020 O.2   136  TYR136     -0.2715
    186  CB        39.7360   33.3290   25.3930 C.3   136  TYR136      0.0574
    187  CG        40.2000   31.8860   25.3450 C.ar  136  TYR136     -0.0198
    188  CD1       39.5530   30.9040   26.0940 C.ar  136  TYR136     -0.0009
    189  CD2       41.3100   31.5100   24.5800 C.ar  136  TYR136     -0.0009
    190  CE1       40.0010   29.5800   26.0890 C.ar  136  TYR136      0.0417
    191  CE2       41.7680   30.1880   24.5680 C.ar  136  TYR136      0.0417
    192  CZ        41.1070   29.2290   25.3260 C.ar  136  TYR136      0.1957
    193  OH        41.5520   27.9260   25.3370 O.3   136  TYR136     -0.2866
    194  N         42.1790   32.9330   27.4950 N.am  137  HIS137     -0.1973
    195  CA        43.5830   32.5800   27.6550 C.3   137  HIS137      0.1656
    196  C         43.5950   31.0970   28.0020 C.2   137  HIS137      0.2291
    197  O         42.7020   30.6220   28.7050 O.2   137  HIS137     -0.2864
    198  CB        44.2680   33.4170   28.7510 C.3   137  HIS137      0.0771
    199  CG        43.8520   33.0740   30.1520 C.ar  137  HIS137      0.0820
    200  ND1       42.8620   33.7580   30.8230 N.ar  137  HIS137     -0.2267
    201  CD2       44.3250   32.1520   31.0250 C.ar  137  HIS137      0.1154
    202  CE1       42.7420   33.2760   32.0470 C.ar  137  HIS137      0.1986
    203  NE2       43.6200   32.2990   32.1940 N.ar  137  HIS137     -0.2212
    204  N         45.0690   27.5500   29.6800 N.3   139  LEU139     -0.1245
    205  CA        45.6860   27.2000   30.9550 C.3   139  LEU139      0.1561
    206  C         46.8100   26.2080   30.6900 C.2   139  LEU139      0.2260
    207  O         46.7910   25.5090   29.6780 O.2   139  LEU139     -0.2867
    208  CB        44.6590   26.5660   31.8970 C.3   139  LEU139      0.0270
    209  CG        43.4650   27.4210   32.3160 C.3   139  LEU139      0.0019
    210  CD1       42.6240   26.6370   33.3000 C.3   139  LEU139      0.0001
    211  CD2       43.9380   28.7210   32.9560 C.3   139  LEU139      0.0001
    212  N         41.8730   24.7190   36.8200 N.3   145  PHE145     -0.1241
    213  CA        40.7090   25.5770   36.6470 C.3   145  PHE145      0.1605
    214  C         39.7610   25.4790   37.8380 C.2   145  PHE145      0.2264
    215  O         39.5180   24.3940   38.3710 O.2   145  PHE145     -0.2867
    216  CB        39.9250   25.2310   35.3760 C.3   145  PHE145      0.0534
    217  CG        38.5780   25.9100   35.3030 C.ar  145  PHE145     -0.0203
    218  CD1       38.4750   27.2440   34.9170 C.ar  145  PHE145     -0.0042
    219  CD2       37.4190   25.2350   35.6850 C.ar  145  PHE145     -0.0042
    220  CE1       37.2400   27.8960   34.9190 C.ar  145  PHE145     -0.0003
    221  CE2       36.1800   25.8780   35.6910 C.ar  145  PHE145     -0.0003
    222  CZ        36.0910   27.2100   35.3080 C.ar  145  PHE145     -0.0000
@<TRIPOS>BOND
     1     3     4    2
     2     3     2    1
     3    23    22    2
     4     1     2    1
     5     2     5    1
     6    13    14    1
     7    22    21    1
     8    22    24   am
     9    14    15    1
    10    16    15    2
    11     5     6    1
    12    21    18    1
    13    15    17   am
    14     6     7   ar
    15     6     8   ar
    16     7     9   ar
    17    17    18    1
    18    53    54   ar
    19    53    51   ar
    20    28    27    2
    21    18    19    1
    22     8    10   ar
    23     9    11   ar
    24    54    52   ar
    25    25    19   am
    26    25    26    1
    27    10    11   ar
    28    11    12    1
    29    29    31    1
    30    29    26    1
    31    29    30    1
    32    19    20    2
    33    51    50   ar
    34    71    70    1
    35    27    26    1
    36    27    32   am
    37    52    50   ar
    38    35    34    2
    39    50    49    1
    40    32    33    1
    41    70    68   ar
    42    70    69   ar
    43    33    34    1
    44    33    36    1
    45    34    40   am
    46    39    37    1
    47    77    76    1
    48    68    66   ar
    49    40    41    1
    50    69    67   ar
    51    41    42    1
    52    41    44    1
    53    49    46    1
    54    76    78    1
    55    76    73    1
    56    36    37    1
    57    37    38    1
    58    42    45   am
    59    42    43    2
    60    72    73    1
    61    45    46    1
    62    66    65   ar
    63    46    47    1
    64    48    47    2
    65    67    65   ar
    66    73    74    1
    67    75    74    2
    68    47    55   am
    69    65    64    1
    70    55    56    1
    71    64    61    1
    72    56    57    1
    73    56    59    1
    74    92    91    1
    75    57    60   am
    76    57    58    2
    77    60    61    1
    78   191   189   ar
    79   191   192   ar
    80   189   187   ar
    81   111   110   ar
    82    93    91    1
    83    61    62    1
    84    91    88    1
    85   110   109    1
    86   110   112   ar
    87   109   108    1
    88   192   193    1
    89   192   190   ar
    90   187   186    1
    91   187   188   ar
    92   186   183    1
    93   181   179    1
    94   190   188   ar
    95   185   184    2
    96   108   105    1
    97    62    63    2
    98   182   183    1
    99   182   176   am
   100    88    89    1
   101    88    87    1
   102   183   184    1
   103   170   169    2
   104   184   194   am
   105    89    90    2
   106   180   179    1
   107   179   178    1
   108   178   175    1
   109    87    81   am
   110   175   176    1
   111   175   174    1
   112   194   195    1
   113   176   177    2
   114   105   104    1
   115   105   106    1
   116   195   196    1
   117   195   198    1
   118   169   174   am
   119   169   168    1
   120   196   197    2
   121   120   122   ar
   122   120   118   ar
   123   131   132   ar
   124   131   129   ar
   125   104    96   am
   126   107   106    2
   127   122   121   ar
   128   101   103   ar
   129   101    99   ar
   130    81    80    1
   131    81    82    2
   132    79    80    1
   133   117   118    1
   134   117   114    1
   135   103   102   ar
   136   171   168    1
   137   171   172    1
   138   132   130   ar
   139   118   119   ar
   140   198   199    1
   141   168   167    1
   142    83    80    1
   143    83    84    1
   144   129   128   ar
   145    99    98    1
   146    99   100   ar
   147   121   119   ar
   148    98    95    1
   149    85    84    1
   150    96    97    2
   151    96    95    1
   152   102   100   ar
   153   207   206    2
   154   204   205    1
   155    84    86    1
   156   115   114    1
   157   115   116    2
   158   172   173    1
   159   114   113    1
   160   130   128   ar
   161    95    94    1
   162   199   200   ar
   163   199   201   ar
   164   158   157    2
   165   167   157   am
   166   167   173    1
   167   128   127    1
   168   206   205    1
   169   200   202   ar
   170   157   156    1
   171   205   208    1
   172   164   162   ar
   173   164   165   ar
   174   201   203   ar
   175   162   160   ar
   176   166   165    1
   177   127   124    1
   178   165   163   ar
   179   208   209    1
   180   202   203   ar
   181   209   211    1
   182   209   210    1
   183   160   159    1
   184   160   161   ar
   185   150   149    2
   186   156   159    1
   187   156   155    1
   188   123   124    1
   189   153   152    1
   190   124   125    1
   191   163   161   ar
   192   149   148    1
   193   152   154    1
   194   152   151    1
   195   125   126    2
   196   148   151    1
   197   148   147    1
   198   145   144    2
   199   218   220   ar
   200   218   217   ar
   201   220   222   ar
   202   217   216    1
   203   217   219   ar
   204   222   221   ar
   205   216   213    1
   206   144   147   am
   207   144   143    1
   208   219   221   ar
   209   213   212    1
   210   213   214    1
   211   133   134    1
   212   142   143    1
   213   142   135   am
   214   134   135    1
   215   134   137    1
   216   143   146    1
   217   135   136    2
   218   214   215    2
   219   138   137    1
   220   138   139    1
   221   140   139   ar
   222   139   141   ar
