@<TRIPOS>MOLECULE
tmp/1hg0B00.pdb
 107 102 0 0 0
SMALL
GASTEIGER

@<TRIPOS>ATOM
      1  N         53.4010    4.7070   17.1320 N.3    14  GLY14      -0.1210
      2  CA        52.1700    5.0610   17.8130 C.3    14  GLY14       0.1956
      3  C         52.1870    6.3930   18.5350 C.2    14  GLY14       0.2613
      4  O         53.2460    6.9690   18.7850 O.2    14  GLY14      -0.2717
      5  N         50.9940    6.8750   18.8750 N.am   15  THR15      -0.1938
      6  CA        50.8290    8.1440   19.5740 C.3    15  THR15       0.2028
      7  C         51.6340    8.1790   20.8730 C.2    15  THR15       0.2642
      8  O         52.0720    9.2470   21.3070 O.2    15  THR15      -0.2714
      9  CB        49.3390    8.4040   19.8960 C.3    15  THR15       0.1808
     10  OG1       48.5880    8.4450   18.6750 O.3    15  THR15      -0.2208
     11  CG2       49.1700    9.7260   20.6280 C.3    15  THR15       0.0379
     12  N         51.8250    7.0140   21.4910 N.am   16  ILE16      -0.1977
     13  CA        52.5950    6.9290   22.7300 C.3    16  ILE16       0.1596
     14  C         54.0000    7.4800   22.4720 C.2    16  ILE16       0.2287
     15  O         54.7200    7.8590   23.3970 O.2    16  ILE16      -0.2864
     16  CB        52.6810    5.4650   23.2440 C.3    16  ILE16       0.0276
     17  CG1       53.4490    5.4220   24.5680 C.3    16  ILE16       0.0022
     18  CG2       53.3370    4.5780   22.2000 C.3    16  ILE16       0.0022
     19  CD1       53.4180    4.0750   25.2560 C.3    16  ILE16       0.0001
     20  N         48.8000   15.4140   15.9110 N.3    29  TYR29      -0.1241
     21  CA        50.1970   15.1590   16.2490 C.3    29  TYR29       0.1605
     22  C         50.7440   14.1300   15.2560 C.2    29  TYR29       0.2264
     23  O         50.0520   13.7340   14.3150 O.2    29  TYR29      -0.2867
     24  CB        50.2860   14.5870   17.6650 C.3    29  TYR29       0.0534
     25  CG        49.3110   13.4550   17.8800 C.ar   29  TYR29      -0.0201
     26  CD1       49.6330   12.1540   17.4910 C.ar   29  TYR29      -0.0009
     27  CD2       48.0330   13.6940   18.3890 C.ar   29  TYR29      -0.0009
     28  CE1       48.7060   11.1210   17.5940 C.ar   29  TYR29       0.0417
     29  CE2       47.0960   12.6660   18.5000 C.ar   29  TYR29       0.0417
     30  CZ        47.4400   11.3820   18.0980 C.ar   29  TYR29       0.1957
     31  OH        46.5220   10.3610   18.1810 O.3    29  TYR29      -0.2866
     32  N         52.3040   10.3290   15.0470 N.3    31  ALA31      -0.1245
     33  CA        52.5830    9.0620   15.7110 C.3    31  ALA31       0.1562
     34  C         53.9550    8.5720   15.2630 C.2    31  ALA31       0.2260
     35  O         54.4300    8.9330   14.1860 O.2    31  ALA31      -0.2867
     36  CB        51.5150    8.0310   15.3600 C.3    31  ALA31       0.0290
     37  N         52.5950    4.9280   12.3610 N.3    61  ALA61      -0.1231
     38  CA        51.2500    5.0770   12.9050 C.3    61  ALA61       0.1694
     39  C         50.6300    3.7000   12.6770 C.2    61  ALA61       0.2593
     40  O         50.7930    3.1230   11.5940 O.2    61  ALA61      -0.2718
     41  CB        50.4860    6.1540   12.1390 C.3    61  ALA61       0.0304
     42  N         49.9340    3.1700   13.6820 N.am   62  SER62      -0.1938
     43  CA        49.3540    1.8310   13.5690 C.3    62  SER62       0.2055
     44  C         48.3560    1.6200   12.4250 C.2    62  SER62       0.2642
     45  O         48.1460    0.4860   11.9960 O.2    62  SER62      -0.2714
     46  CB        48.7210    1.4050   14.9010 C.3    62  SER62       0.2130
     47  OG        47.4880    2.0540   15.1240 O.3    62  SER62      -0.2179
     48  N         47.7440    2.6880   11.9200 N.am   63  GLU63      -0.1976
     49  CA        46.8040    2.5300   10.8120 C.3    63  GLU63       0.1602
     50  C         47.5490    2.0200    9.5820 C.2    63  GLU63       0.2287
     51  O         46.9310    1.5380    8.6290 O.2    63  GLU63      -0.2864
     52  CB        46.1340    3.8540   10.4590 C.3    63  GLU63       0.0415
     53  CG        47.1120    4.9490   10.1050 C.3    63  GLU63       0.1163
     54  CD        47.3370    5.8930   11.2620 C.2    63  GLU63       0.3649
     55  OE1       47.4380    5.4070   12.4160 O.co2  63  GLU63      -0.2457
     56  OE2       47.4170    7.1150   11.0140 O.co2  63  GLU63      -0.2457
     57  N         52.7790    0.3780   20.8130 N.3    93  HIS93      -0.1226
     58  CA        52.0340    0.3070   19.5530 C.3    93  HIS93       0.1752
     59  C         50.9560    1.3950   19.5010 C.2    93  HIS93       0.2597
     60  O         50.5020    1.8790   20.5430 O.2    93  HIS93      -0.2718
     61  CB        51.3910   -1.0930   19.4900 C.3    93  HIS93       0.0759
     62  CG        50.8500   -1.4890   18.1500 C.ar   93  HIS93       0.0818
     63  ND1       49.6460   -1.0270   17.6580 N.ar   93  HIS93      -0.2268
     64  CD2       51.3130   -2.3720   17.2320 C.ar   93  HIS93       0.1154
     65  CE1       49.3910   -1.6110   16.5010 C.ar   93  HIS93       0.1986
     66  NE2       50.3890   -2.4340   16.2190 N.ar   93  HIS93      -0.2212
     67  N         50.5510    1.7830   18.2930 N.am   94  GLY94      -0.1942
     68  CA        49.5050    2.7840   18.1640 C.3    94  GLY94       0.2014
     69  C         48.2140    2.1370   18.6290 C.2    94  GLY94       0.2640
     70  O         48.0870    0.9140   18.5730 O.2    94  GLY94      -0.2714
     71  N         47.2510    2.9290   19.0880 N.am   95  THR95      -0.1936
     72  CA        45.9940    2.3610   19.5690 C.3    95  THR95       0.2028
     73  C         45.0210    1.9220   18.4690 C.2    95  THR95       0.2642
     74  O         44.2290    1.0010   18.6690 O.2    95  THR95      -0.2714
     75  CB        45.2430    3.3590   20.4800 C.3    95  THR95       0.1808
     76  OG1       44.8940    4.5260   19.7240 O.3    95  THR95      -0.2208
     77  CG2       46.1080    3.7650   21.6640 C.3    95  THR95       0.0379
     78  N         45.0860    2.5630   17.3060 N.am   96  ASP96      -0.1971
     79  CA        44.1490    2.2460   16.2330 C.3    96  ASP96       0.1709
     80  C         44.0100    0.7820   15.8240 C.2    96  ASP96       0.2293
     81  O         42.8910    0.2860   15.6670 O.2    96  ASP96      -0.2864
     82  CB        44.4410    3.1130   14.9990 C.3    96  ASP96       0.1436
     83  CG        44.2660    4.5920   15.2830 C.2    96  ASP96       0.3671
     84  OD1       43.4360    4.9290   16.1490 O.co2  96  ASP96      -0.2456
     85  OD2       44.9480    5.4150   14.6410 O.co2  96  ASP96      -0.2456
     86  N         49.0220    4.6760   23.9950 N.3   120  ALA120     -0.1231
     87  CA        48.5860    5.9210   24.6230 C.3   120  ALA120      0.1694
     88  C         47.5650    6.6570   23.7620 C.2   120  ALA120      0.2591
     89  O         47.7090    6.7430   22.5400 O.2   120  ALA120     -0.2718
     90  CB        49.7900    6.8260   24.8820 C.3   120  ALA120      0.0304
     91  N         46.5300    7.1930   24.3960 N.am  121  MET121     -0.1979
     92  CA        45.5260    7.9200   23.6370 C.3   121  MET121      0.1605
     93  C         45.9400    9.3670   23.4050 C.2   121  MET121      0.2287
     94  O         45.4770   10.0020   22.4570 O.2   121  MET121     -0.2864
     95  CB        44.1650    7.8360   24.3320 C.3   121  MET121      0.0413
     96  CG        43.4650    6.5040   24.0920 C.3   121  MET121      0.0598
     97  SD        43.1360    6.2130   22.3330 S.3   121  MET121     -0.1393
     98  CE        41.8000    7.3810   22.0650 C.3   121  MET121      0.0692
     99  N         39.2010   -1.3200   20.8280 N.3   168  LYS168     -0.1245
    100  CA        39.0810    0.1210   20.9950 C.3   168  LYS168      0.1561
    101  C         37.6020    0.4210   20.7390 C.2   168  LYS168      0.2260
    102  O         37.1260    0.2760   19.6100 O.2   168  LYS168     -0.2867
    103  CB        39.9820    0.8370   19.9750 C.3   168  LYS168      0.0271
    104  CG        40.0760    2.3320   20.1690 C.3   168  LYS168      0.0035
    105  CD        41.1070    2.9680   19.2520 C.3   168  LYS168      0.0206
    106  CE        41.2020    4.4590   19.5420 C.3   168  LYS168      0.1093
    107  NZ        42.3860    5.0850   18.8840 N.3   168  LYS168     -0.1314
@<TRIPOS>BOND
     1    51    50    2
     2    50    49    1
     3    53    52    1
     4    53    54    1
     5    52    49    1
     6    49    48    1
     7    56    54   ar
     8    54    55   ar
     9    40    39    2
    10    48    44   am
    11    45    44    2
    12    41    38    1
    13    37    38    1
    14    44    43    1
    15    39    38    1
    16    39    42   am
    17    43    42    1
    18    43    46    1
    19    35    34    2
    20    23    22    2
    21    85    83   ar
    22    46    47    1
    23    82    83    1
    24    82    79    1
    25    32    33    1
    26    22    21    1
    27    34    33    1
    28    83    84   ar
    29    36    33    1
    30    81    80    2
    31    80    79    1
    32    20    21    1
    33    66    65   ar
    34    66    64   ar
    35    79    78    1
    36    21    24    1
    37    65    63   ar
    38     1     2    1
    39    64    62   ar
    40    78    73   am
    41    26    28   ar
    42    26    25   ar
    43    28    30   ar
    44    63    62   ar
    45    24    25    1
    46     2     3    1
    47    25    27   ar
    48    30    31    1
    49    30    29   ar
    50    62    61    1
    51    68    67    1
    52    68    69    1
    53    67    59   am
    54    27    29   ar
    55    73    74    2
    56    73    72    1
    57     3     4    2
    58     3     5   am
    59    70    69    2
    60    69    71   am
    61    10     9    1
    62     5     6    1
    63   107   106    1
    64    71    72    1
    65   105   106    1
    66   105   104    1
    67    61    58    1
    68    59    58    1
    69    59    60    2
    70    58    57    1
    71    72    75    1
    72     6     9    1
    73     6     7    1
    74   102   101    2
    75    76    75    1
    76     9    11    1
    77   103   104    1
    78   103   100    1
    79    75    77    1
    80   101   100    1
    81    99   100    1
    82     7     8    2
    83     7    12   am
    84    12    13    1
    85    98    97    1
    86    18    16    1
    87    97    96    1
    88    94    93    2
    89    14    13    1
    90    14    15    2
    91    89    88    2
    92    13    16    1
    93    16    17    1
    94    93    92    1
    95    92    95    1
    96    92    91    1
    97    88    91   am
    98    88    87    1
    99    86    87    1
   100    96    95    1
   101    17    19    1
   102    87    90    1
