@<TRIPOS>MOLECULE
tmp/1hggE05.pdb
 129 126 0 0 0
SMALL
GASTEIGER

@<TRIPOS>ATOM
      1  N         36.8780   71.6710    2.8750 N.3    65  THR65      -0.1218
      2  CA        36.3060   70.3440    3.0440 C.3    65  THR65       0.1862
      3  C         35.8500   69.9390    1.6530 C.2    65  THR65       0.2287
      4  O         35.7340   70.8130    0.7770 O.2    65  THR65      -0.2866
      5  CB        35.1280   70.4040    3.9960 C.3    65  THR65       0.1770
      6  OG1       34.2450   71.3790    3.4670 O.3    65  THR65      -0.2211
      7  CG2       35.5280   70.7690    5.3920 C.3    65  THR65       0.0375
      8  N         40.7900   65.2750    4.2750 N.3    89  GLU89      -0.1245
      9  CA        40.1790   66.4700    4.8350 C.3    89  GLU89       0.1567
     10  C         40.9030   66.8860    6.1170 C.2    89  GLU89       0.2260
     11  O         41.1430   66.0460    7.0060 O.2    89  GLU89      -0.2867
     12  CB        38.7550   66.1930    5.1570 C.3    89  GLU89       0.0388
     13  CG        37.7210   66.8150    4.2420 C.3    89  GLU89       0.1160
     14  CD        36.2800   66.5370    4.7090 C.2    89  GLU89       0.3649
     15  OE1       36.0660   66.1700    5.8770 O.co2  89  GLU89      -0.2457
     16  OE2       35.3390   66.6460    3.9010 O.co2  89  GLU89      -0.2457
     17  N         40.2530   72.9480    8.0800 N.3    93  ALA93      -0.1231
     18  CA        39.4730   73.4490    6.9640 C.3    93  ALA93       0.1694
     19  C         38.4120   74.3970    7.4430 C.2    93  ALA93       0.2592
     20  O         37.9100   74.1830    8.5400 O.2    93  ALA93      -0.2718
     21  CB        38.7900   72.3260    6.2430 C.3    93  ALA93       0.0304
     22  N         38.0630   75.4250    6.6850 N.am   94  PHE94      -0.1962
     23  CA        37.0760   76.3570    7.1440 C.3    94  PHE94       0.1771
     24  C         36.2390   76.7450    5.9610 C.2    94  PHE94       0.2620
     25  O         36.6960   76.6840    4.8220 O.2    94  PHE94      -0.2715
     26  CB        37.7400   77.5960    7.7410 C.3    94  PHE94       0.0574
     27  CG        38.5570   78.4430    6.7710 C.ar   94  PHE94      -0.0200
     28  CD1       39.8730   78.1110    6.5250 C.ar   94  PHE94      -0.0042
     29  CD2       37.9560   79.4700    6.0750 C.ar   94  PHE94      -0.0042
     30  CE1       40.5830   78.7930    5.5690 C.ar   94  PHE94      -0.0003
     31  CE2       38.6700   80.1480    5.1250 C.ar   94  PHE94      -0.0003
     32  CZ        39.9790   79.8130    4.8640 C.ar   94  PHE94      -0.0000
     33  N         35.0100   77.1550    6.1960 N.am   95  SER95      -0.1950
     34  CA        34.1620   77.6380    5.1350 C.3    95  SER95       0.1924
     35  C         34.1680   79.1390    5.2390 C.2    95  SER95       0.2314
     36  O         34.3000   79.7160    6.3280 O.2    95  SER95      -0.2863
     37  CB        32.7790   77.1410    5.3290 C.3    95  SER95       0.2116
     38  OG        32.7740   75.7670    5.7090 O.3    95  SER95      -0.2180
     39  N         26.4700   81.3850    4.3490 N.3    99  PRO99      -0.2102
     40  CA        26.1270   80.3270    5.2840 C.3    99  PRO99       0.1504
     41  C         25.1630   79.3010    4.6930 C.2    99  PRO99       0.2576
     42  O         24.0610   79.6570    4.2690 O.2    99  PRO99      -0.2718
     43  CB        25.5930   81.0890    6.4900 C.3    99  PRO99       0.0282
     44  CG        25.3550   82.4880    6.0600 C.3    99  PRO99       0.0208
     45  CD        26.4710   82.6570    5.0600 C.3    99  PRO99       0.0893
     46  N         25.5390   78.0280    4.6570 N.am  100  TYR100     -0.1963
     47  CA        24.6920   77.0020    4.0950 C.3   100  TYR100      0.1771
     48  C         24.5990   75.8130    5.0300 C.2   100  TYR100      0.2620
     49  O         25.4610   75.6340    5.8940 O.2   100  TYR100     -0.2715
     50  CB        25.2330   76.4970    2.7770 C.3   100  TYR100      0.0574
     51  CG        26.4900   75.6480    2.8810 C.ar  100  TYR100     -0.0198
     52  CD1       27.7110   76.2520    2.8940 C.ar  100  TYR100     -0.0009
     53  CD2       26.4210   74.2890    2.9630 C.ar  100  TYR100     -0.0009
     54  CE1       28.8580   75.5110    2.9820 C.ar  100  TYR100      0.0417
     55  CE2       27.5660   73.5510    3.0650 C.ar  100  TYR100      0.0417
     56  CZ        28.7860   74.1570    3.0710 C.ar  100  TYR100      0.1957
     57  OH        29.9390   73.3900    3.1500 O.3   100  TYR100     -0.2866
     58  N         23.6100   74.9540    4.8500 N.am  101  ASP101     -0.1957
     59  CA        23.5490   73.7140    5.5810 C.3   101  ASP101      0.1840
     60  C         23.1690   72.6860    4.5420 C.2   101  ASP101      0.2622
     61  O         22.6680   73.0010    3.4590 O.2   101  ASP101     -0.2715
     62  CB        22.5030   73.7610    6.7000 C.3   101  ASP101      0.1450
     63  CG        21.0610   73.7480    6.2770 C.2   101  ASP101      0.3671
     64  OD1       20.5670   74.7810    5.8520 O.co2 101  ASP101     -0.2456
     65  OD2       20.4150   72.7120    6.3650 O.co2 101  ASP101     -0.2456
     66  N         23.4910   71.4330    4.7790 N.am  102  VAL102     -0.1964
     67  CA        23.1470   70.4190    3.8130 C.3   102  VAL102      0.1712
     68  C         22.3630   69.4030    4.6020 C.2   102  VAL102      0.2458
     69  O         22.9530   68.8170    5.5040 O.2   102  VAL102     -0.2730
     70  CB        24.3660   69.7030    3.2250 C.3   102  VAL102      0.0289
     71  CG1       23.9230   69.0230    1.9510 C.3   102  VAL102      0.0023
     72  CG2       25.4960   70.6420    2.9270 C.3   102  VAL102      0.0023
     73  N         21.0770   69.1890    4.3440 N.am  103  PRO103     -0.2727
     74  CA        20.2510   68.2340    5.0370 C.3   103  PRO103      0.1402
     75  C         20.9120   66.8820    5.1600 C.2   103  PRO103      0.2269
     76  O         21.0760   66.4650    6.2960 O.2   103  PRO103     -0.2865
     77  CB        18.9920   68.2580    4.2500 C.3   103  PRO103      0.0296
     78  CG        18.8320   69.7370    4.1170 C.3   103  PRO103      0.0237
     79  CD        20.2120   70.1210    3.6340 C.3   103  PRO103      0.0939
     80  N         24.1620   65.9380    4.7700 N.3   105  TYR105     -0.1227
     81  CA        25.5640   66.2340    4.5180 C.3   105  TYR105      0.1736
     82  C         26.3360   64.9460    4.3970 C.2   105  TYR105      0.2595
     83  O         27.0500   64.7130    3.4360 O.2   105  TYR105     -0.2718
     84  CB        26.0940   67.0290    5.6590 C.3   105  TYR105      0.0548
     85  CG        27.4980   67.5460    5.5070 C.ar  105  TYR105     -0.0200
     86  CD1       28.6130   66.8440    5.9000 C.ar  105  TYR105     -0.0009
     87  CD2       27.6180   68.7840    4.9550 C.ar  105  TYR105     -0.0009
     88  CE1       29.8550   67.3980    5.7200 C.ar  105  TYR105      0.0417
     89  CE2       28.8560   69.3450    4.7740 C.ar  105  TYR105      0.0417
     90  CZ        29.9640   68.6490    5.1510 C.ar  105  TYR105      0.1957
     91  OH        31.1770   69.2540    4.9010 O.3   105  TYR105     -0.2866
     92  N         26.1000   64.0740    5.3420 N.am  106  ALA106     -0.1980
     93  CA        26.7660   62.7970    5.4000 C.3   106  ALA106      0.1597
     94  C         26.6260   61.9920    4.1340 C.2   106  ALA106      0.2287
     95  O         27.6170   61.3890    3.7340 O.2   106  ALA106     -0.2864
     96  CB        26.1840   62.0500    6.5710 C.3   106  ALA106      0.0319
     97  N         28.5490   64.1060    1.1320 N.3   109  ARG109     -0.1245
     98  CA        29.9720   63.9140    1.2590 C.3   109  ARG109      0.1563
     99  C         30.3290   62.5180    0.8000 C.2   109  ARG109      0.2260
    100  O         31.2540   62.4220    0.0120 O.2   109  ARG109     -0.2867
    101  CB        30.4130   64.0940    2.6980 C.3   109  ARG109      0.0307
    102  CG        31.9190   64.1520    2.8470 C.3   109  ARG109      0.0489
    103  CD        32.3510   64.3600    4.2940 C.3   109  ARG109      0.2205
    104  NE        32.8240   63.1070    4.8700 N.pl3 109  ARG109     -0.0865
    105  CZ        34.0790   62.9950    5.3160 C.cat 109  ARG109      0.5346
    106  NH1       34.8320   64.0930    5.2820 N.pl3 109  ARG109      0.1354
    107  NH2       34.5400   61.8230    5.8390 N.pl3 109  ARG109      0.1354
    108  N         28.8780   85.3740    9.2680 N.3   224  ARG224     -0.1245
    109  CA        29.4160   86.2970    8.2740 C.3   224  ARG224      0.1563
    110  C         28.4410   87.3870    7.8510 C.2   224  ARG224      0.2260
    111  O         28.1450   87.6390    6.6850 O.2   224  ARG224     -0.2867
    112  CB        29.9070   85.5070    7.0700 C.3   224  ARG224      0.0307
    113  CG        31.3030   84.9990    7.3610 C.3   224  ARG224      0.0489
    114  CD        31.9290   84.3320    6.1520 C.3   224  ARG224      0.2205
    115  NE        31.1470   83.1590    5.8200 N.pl3 224  ARG224     -0.0865
    116  CZ        31.2600   82.0220    6.5040 C.cat 224  ARG224      0.5346
    117  NH1       32.1810   81.9060    7.4700 N.pl3 224  ARG224      0.1354
    118  NH2       30.4940   80.9880    6.1520 N.pl3 224  ARG224      0.1354
    119  N         39.7000   61.7870    7.0090 N.3   269  ARG269     -0.1245
    120  CA        40.0090   62.9780    7.7500 C.3   269  ARG269      0.1563
    121  C         41.3070   62.6420    8.4610 C.2   269  ARG269      0.2260
    122  O         41.3500   61.6390    9.1920 O.2   269  ARG269     -0.2867
    123  CB        38.9470   63.2590    8.7580 C.3   269  ARG269      0.0307
    124  CG        37.5260   63.3830    8.2160 C.3   269  ARG269      0.0489
    125  CD        36.5240   63.6810    9.3390 C.3   269  ARG269      0.2205
    126  NE        35.1510   63.7800    8.8910 N.pl3 269  ARG269     -0.0865
    127  CZ        34.2800   62.7590    9.0010 C.cat 269  ARG269      0.5346
    128  NH1       34.6550   61.5820    9.4960 N.pl3 269  ARG269      0.1354
    129  NH2       33.0140   62.8960    8.5780 N.pl3 269  ARG269      0.1354
@<TRIPOS>BOND
     1   100    99    2
     2     4     3    2
     3    99    98    1
     4    97    98    1
     5    98   101    1
     6     3     2    1
     7    71    70    1
     8   101   102    1
     9    50    51    1
    10    50    47    1
    11   102   103    1
    12     1     2    1
    13    51    52   ar
    14    51    53   ar
    15    52    54   ar
    16    72    70    1
    17    53    55   ar
    18    54    56   ar
    19     2     5    1
    20    55    56   ar
    21    56    57    1
    22    70    67    1
    23    83    82    2
    24    61    60    2
    25     6     5    1
    26    79    78    1
    27    79    73    1
    28    95    94    2
    29    67    68    1
    30    67    66    1
    31    16    14   ar
    32     5     7    1
    33    47    46    1
    34    47    48    1
    35    78    77    1
    36    94    93    1
    37    13    14    1
    38    13    12    1
    39    77    74    1
    40    42    41    2
    41     8     9    1
    42   103   104    1
    43    73    68   am
    44    73    74    1
    45    39    45    1
    46    39    40    1
    47    82    81    1
    48    82    92   am
    49    81    80    1
    50    81    84    1
    51    60    66   am
    52    60    59    1
    53    68    69    2
    54    46    41   am
    55    41    40    1
    56    14    15   ar
    57    89    87   ar
    58    89    90   ar
    59    25    24    2
    60     9    12    1
    61     9    10    1
    62    58    48   am
    63    58    59    1
    64    32    31   ar
    65    32    30   ar
    66   104   105    2
    67    91    90    1
    68    87    85   ar
    69    48    49    2
    70    74    75    1
    71    45    44    1
    72    31    29   ar
    73    34    35    1
    74    34    37    1
    75    34    33    1
    76    90    88   ar
    77    75    76    2
    78    35    36    2
    79   106   105    1
    80    40    43    1
    81   105   107    1
    82    37    38    1
    83    92    93    1
    84    93    96    1
    85    85    84    1
    86    85    86   ar
    87    30    28   ar
    88    59    62    1
    89    88    86   ar
    90   115   114    1
    91   115   116    2
    92    64    63   ar
    93    24    33   am
    94    24    23    1
    95    44    43    1
    96    29    27   ar
    97    10    11    2
    98   118   116    1
    99   114   113    1
   100    21    18    1
   101    63    65   ar
   102    63    62    1
   103   116   117    1
   104    28    27   ar
   105    22    23    1
   106    22    19   am
   107   111   110    2
   108    27    26    1
   109    18    19    1
   110    18    17    1
   111   119   120    1
   112   112   113    1
   113   112   109    1
   114    23    26    1
   115    19    20    2
   116   120   121    1
   117   120   123    1
   118   110   109    1
   119   124   123    1
   120   124   125    1
   121   109   108    1
   122   121   122    2
   123   129   127    1
   124   126   127    2
   125   126   125    1
   126   127   128    1
