@<TRIPOS>MOLECULE
tmp/1hggE04.pdb
 153 147 0 0 0
SMALL
GASTEIGER

@<TRIPOS>ATOM
      1  N         28.7080   82.1410    1.6840 N.3    98  TYR98      -0.1241
      2  CA        27.3560   82.2840    2.2100 C.3    98  TYR98       0.1605
      3  C         27.0340   81.1540    3.1550 C.2    98  TYR98       0.2264
      4  O         27.4150   80.0370    2.8290 O.2    98  TYR98      -0.2867
      5  CB        26.3620   82.2650    1.0790 C.3    98  TYR98       0.0534
      6  CG        25.1250   83.0420    1.4260 C.ar   98  TYR98      -0.0201
      7  CD1       24.1180   82.4390    2.1210 C.ar   98  TYR98      -0.0009
      8  CD2       25.0200   84.3560    1.0290 C.ar   98  TYR98      -0.0009
      9  CE1       22.9860   83.1590    2.4250 C.ar   98  TYR98       0.0417
     10  CE2       23.8940   85.0840    1.3240 C.ar   98  TYR98       0.0417
     11  CZ        22.8810   84.4710    2.0210 C.ar   98  TYR98       0.1957
     12  OH        21.7210   85.1590    2.2870 O.3    98  TYR98      -0.2866
     13  N         23.5350   86.4210   -8.5770 N.3   134  GLY134     -0.1210
     14  CA        23.5180   87.1040   -7.2870 C.3   134  GLY134      0.1956
     15  C         24.6660   86.6230   -6.4070 C.2   134  GLY134      0.2612
     16  O         25.0870   85.4650   -6.5200 O.2   134  GLY134     -0.2717
     17  N         25.1760   87.4690   -5.5340 N.am  135  GLY135     -0.1942
     18  CA        26.2790   87.0810   -4.6890 C.3   135  GLY135      0.2014
     19  C         26.1160   87.8140   -3.3900 C.2   135  GLY135      0.2640
     20  O         25.1180   88.5100   -3.2100 O.2   135  GLY135     -0.2714
     21  N         27.0740   87.7360   -2.4970 N.am  136  SER136     -0.1935
     22  CA        26.9560   88.3680   -1.2240 C.3   136  SER136      0.2055
     23  C         28.3310   88.7140   -0.7410 C.2   136  SER136      0.2643
     24  O         29.3510   88.1370   -1.1350 O.2   136  SER136     -0.2714
     25  CB        26.3080   87.4260   -0.2580 C.3   136  SER136      0.2130
     26  OG        26.6190   87.6630    1.1090 O.3   136  SER136     -0.2179
     27  N         28.3380   89.6530    0.1720 N.am  137  ASN137     -0.1971
     28  CA        29.5560   90.0940    0.7740 C.3   137  ASN137      0.1688
     29  C         30.1140   89.0810    1.7240 C.2   137  ASN137      0.2292
     30  O         31.2750   89.2350    2.1070 O.2   137  ASN137     -0.2864
     31  CB        29.3680   91.3760    1.5300 C.3   137  ASN137      0.1181
     32  CG        30.0510   92.5090    0.7730 C.2   137  ASN137      0.2629
     33  OD1       30.8690   92.3380   -0.1590 O.2   137  ASN137     -0.2716
     34  ND2       29.7320   93.7440    1.1310 N.am  137  ASN137     -0.0877
     35  N         31.6130   91.1340   -3.8970 N.3   145  SER145     -0.1217
     36  CA        30.6760   90.1900   -3.3510 C.3   145  SER145      0.1889
     37  C         30.6880   89.0430   -4.3300 C.2   145  SER145      0.2288
     38  O         30.9480   89.3040   -5.5090 O.2   145  SER145     -0.2866
     39  CB        29.3120   90.7910   -3.3290 C.3   145  SER145      0.2089
     40  OG        29.3800   92.0590   -2.6940 O.3   145  SER145     -0.2183
     41  N         22.4030   82.1660   -8.0020 N.3   153  TRP153     -0.1241
     42  CA        21.3470   82.7690   -7.1590 C.3   153  TRP153      0.1605
     43  C         20.4550   83.6850   -7.9460 C.2   153  TRP153      0.2264
     44  O         20.9020   84.7320   -8.3950 O.2   153  TRP153     -0.2867
     45  CB        22.0190   83.5430   -6.0220 C.3   153  TRP153      0.0550
     46  CG        21.1830   84.1240   -4.8900 C.ar  153  TRP153      0.0003
     47  CD1       19.8190   84.0410   -4.7860 C.ar  153  TRP153      0.0946
     48  CD2       21.7170   84.7650   -3.8200 C.ar  153  TRP153      0.0152
     49  NE1       19.5150   84.6290   -3.6490 N.ar  153  TRP153     -0.2442
     50  CE2       20.6090   85.0640   -3.0590 C.ar  153  TRP153      0.0810
     51  CE3       22.9620   85.1250   -3.4150 C.ar  153  TRP153      0.0012
     52  CZ2       20.7080   85.7160   -1.8640 C.ar  153  TRP153      0.0191
     53  CZ3       23.0710   85.7820   -2.2150 C.ar  153  TRP153      0.0001
     54  CH2       21.9670   86.0770   -1.4500 C.ar  153  TRP153      0.0015
     55  N         17.2310   86.1810   -8.4060 N.3   155  THR155     -0.1218
     56  CA        16.4150   87.1520   -7.7080 C.3   155  THR155      0.1862
     57  C         15.4450   87.7430   -8.7150 C.2   155  THR155      0.2287
     58  O         15.5160   87.4000   -9.8970 O.2   155  THR155     -0.2866
     59  CB        17.3400   88.2140   -7.1110 C.3   155  THR155      0.1770
     60  OG1       18.5410   88.2780   -7.8920 O.3   155  THR155     -0.2211
     61  CG2       17.6400   87.8930   -5.6610 C.3   155  THR155      0.0375
     62  N         17.0220   79.3350   -0.7770 N.3   183  HIS183     -0.1241
     63  CA        17.4590   80.3880    0.1120 C.3   183  HIS183      0.1621
     64  C         16.3640   80.6180    1.1140 C.2   183  HIS183      0.2264
     65  O         15.2130   80.7660    0.7000 O.2   183  HIS183     -0.2867
     66  CB        17.7070   81.6760   -0.6660 C.3   183  HIS183      0.0745
     67  CG        18.0130   82.9320    0.1660 C.ar  183  HIS183      0.0817
     68  ND1       17.1280   83.8980    0.2340 N.ar  183  HIS183     -0.2268
     69  CD2       19.1890   83.2620    0.7920 C.ar  183  HIS183      0.1154
     70  CE1       17.7410   84.8620    0.8970 C.ar  183  HIS183      0.1986
     71  NE2       18.9570   84.4800    1.2230 N.ar  183  HIS183     -0.2212
     72  N         15.7150   85.9600    6.0970 N.3   186  SER186     -0.1202
     73  CA        15.5710   86.2090    7.5060 C.3   186  SER186      0.2020
     74  C         14.2540   86.8280    7.8480 C.2   186  SER186      0.2619
     75  O         13.7310   86.5620    8.9210 O.2   186  SER186     -0.2717
     76  CB        16.6180   87.1280    8.0120 C.3   186  SER186      0.2103
     77  OG        17.8470   86.4280    7.9950 O.3   186  SER186     -0.2182
     78  N         13.6950   87.6630    6.9720 N.am  187  THR187     -0.1952
     79  CA        12.4760   88.3970    7.2750 C.3   187  THR187      0.1897
     80  C         11.4940   88.2930    6.1310 C.2   187  THR187      0.2313
     81  O         11.8840   88.0710    4.9860 O.2   187  THR187     -0.2863
     82  CB        12.8190   89.8690    7.5120 C.3   187  THR187      0.1794
     83  OG1       13.3210   90.3870    6.2840 O.3   187  THR187     -0.2208
     84  CG2       13.8860   90.0700    8.5880 C.3   187  THR187      0.0378
     85  N         10.0030   90.7370    4.8540 N.3   189  GLN189     -0.1231
     86  CA        10.4050   91.8340    3.9960 C.3   189  GLN189      0.1698
     87  C         11.5220   91.3780    3.0720 C.2   189  GLN189      0.2592
     88  O         11.3860   91.5900    1.8880 O.2   189  GLN189     -0.2718
     89  CB        10.8660   93.0060    4.8100 C.3   189  GLN189      0.0381
     90  CG        11.1790   94.2340    3.9560 C.3   189  GLN189      0.0905
     91  CD        12.5660   94.8320    4.2340 C.2   189  GLN189      0.2608
     92  OE1       13.1790   95.4160    3.3350 O.2   189  GLN189     -0.2717
     93  NE2       13.1440   94.7590    5.4460 N.am  189  GLN189     -0.0878
     94  N         12.5480   90.6750    3.5400 N.am  190  GLU190     -0.1979
     95  CA        13.6010   90.1470    2.6940 C.3   190  GLU190      0.1602
     96  C         13.0150   89.2360    1.6210 C.2   190  GLU190      0.2287
     97  O         13.3600   89.3440    0.4370 O.2   190  GLU190     -0.2864
     98  CB        14.5710   89.3810    3.5680 C.3   190  GLU190      0.0415
     99  CG        15.9300   89.0490    2.9940 C.3   190  GLU190      0.1163
    100  CD        16.8050   88.2540    3.9510 C.2   190  GLU190      0.3649
    101  OE1       17.0680   88.6890    5.0740 O.co2 190  GLU190     -0.2457
    102  OE2       17.2090   87.1540    3.5960 O.co2 190  GLU190     -0.2457
    103  N         13.4810   90.2140   -2.4330 N.3   194  LEU194     -0.1245
    104  CA        14.1800   89.4210   -3.4000 C.3   194  LEU194      0.1561
    105  C         13.2760   88.6140   -4.3200 C.2   194  LEU194      0.2260
    106  O         13.4910   88.6030   -5.5350 O.2   194  LEU194     -0.2867
    107  CB        15.1310   88.4850   -2.6930 C.3   194  LEU194      0.0270
    108  CG        16.0180   88.9880   -1.6010 C.3   194  LEU194      0.0019
    109  CD1       16.9240   87.8910   -1.1720 C.3   194  LEU194      0.0001
    110  CD2       16.8710   90.1110   -2.0860 C.3   194  LEU194      0.0001
    111  N         23.8700   85.0490   13.3650 N.3   222  TRP222     -0.1241
    112  CA        24.7540   85.8020   12.5070 C.3   222  TRP222      0.1605
    113  C         25.9780   84.9400   12.1980 C.2   222  TRP222      0.2264
    114  O         26.6880   84.4600   13.1000 O.2   222  TRP222     -0.2867
    115  CB        25.1100   87.0580   13.2780 C.3   222  TRP222      0.0550
    116  CG        25.7780   88.2590   12.6060 C.ar  222  TRP222      0.0003
    117  CD1       27.1560   88.4660   12.5920 C.ar  222  TRP222      0.0946
    118  CD2       25.0770   89.3030   12.0520 C.ar  222  TRP222      0.0152
    119  NE1       27.3220   89.6530   12.0420 N.ar  222  TRP222     -0.2442
    120  CE2       26.1160   90.1840   11.7060 C.ar  222  TRP222      0.0810
    121  CE3       23.7490   89.5960   11.8040 C.ar  222  TRP222      0.0012
    122  CZ2       25.8200   91.4030   11.1070 C.ar  222  TRP222      0.0191
    123  CZ3       23.4730   90.8110   11.2040 C.ar  222  TRP222      0.0001
    124  CH2       24.4880   91.7000   10.8540 C.ar  222  TRP222      0.0015
    125  N         28.8780   85.3740    9.2680 N.3   224  ARG224     -0.1231
    126  CA        29.4160   86.2970    8.2740 C.3   224  ARG224      0.1694
    127  C         28.4410   87.3870    7.8510 C.2   224  ARG224      0.2593
    128  O         28.1450   87.6390    6.6850 O.2   224  ARG224     -0.2718
    129  CB        29.9070   85.5070    7.0700 C.3   224  ARG224      0.0321
    130  CG        31.3030   84.9990    7.3610 C.3   224  ARG224      0.0489
    131  CD        31.9290   84.3320    6.1520 C.3   224  ARG224      0.2205
    132  NE        31.1470   83.1590    5.8200 N.pl3 224  ARG224     -0.0865
    133  CZ        31.2600   82.0220    6.5040 C.cat 224  ARG224      0.5346
    134  NH1       32.1810   81.9060    7.4700 N.pl3 224  ARG224      0.1354
    135  NH2       30.4940   80.9880    6.1520 N.pl3 224  ARG224      0.1354
    136  N         27.9150   88.0470    8.8790 N.am  225  GLY225     -0.1942
    137  CA        27.0010   89.1440    8.6690 C.3   225  GLY225      0.2014
    138  C         25.5800   88.7160    8.3580 C.2   225  GLY225      0.2638
    139  O         24.6820   89.5460    8.2770 O.2   225  GLY225     -0.2714
    140  N         25.2840   87.4320    8.2300 N.am  226  LEU226     -0.1977
    141  CA        23.9600   87.0400    7.8030 C.3   226  LEU226      0.1596
    142  C         23.1910   86.1630    8.7570 C.2   226  LEU226      0.2287
    143  O         23.7560   85.3290    9.4680 O.2   226  LEU226     -0.2864
    144  CB        24.1040   86.3450    6.4710 C.3   226  LEU226      0.0297
    145  CG        24.6790   87.2000    5.3570 C.3   226  LEU226      0.0022
    146  CD1       25.3430   86.3100    4.3390 C.3   226  LEU226      0.0001
    147  CD2       23.5840   88.0390    4.7410 C.3   226  LEU226      0.0001
    148  N         20.3890   84.7330    7.2820 N.3   228  SER228     -0.1217
    149  CA        19.7330   83.8530    6.3530 C.3   228  SER228      0.1889
    150  C         20.6090   82.6300    6.1340 C.2   228  SER228      0.2288
    151  O         21.7280   82.5470    6.6620 O.2   228  SER228     -0.2866
    152  CB        19.5110   84.6010    5.0750 C.3   228  SER228      0.2089
    153  OG        19.8380   85.9810    5.2310 O.3   228  SER228     -0.2183
@<TRIPOS>BOND
     1    58    57    2
     2    57    56    1
     3    13    14    1
     4    55    56    1
     5    44    43    2
     6    41    42    1
     7    43    42    1
     8    60    59    1
     9    56    59    1
    10    14    15    1
    11    42    45    1
    12    59    61    1
    13    16    15    2
    14    15    17   am
    15    45    46    1
    16   106   105    2
    17    17    18    1
    18    38    37    2
    19    46    47   ar
    20    46    48   ar
    21    47    49   ar
    22    18    19    1
    23    37    36    1
    24   105   104    1
    25    35    36    1
    26    48    51   ar
    27    48    50   ar
    28    49    50   ar
    29    51    53   ar
    30   104   107    1
    31   104   103    1
    32    19    20    2
    33    19    21   am
    34    36    39    1
    35    39    40    1
    36    50    52   ar
    37   107   108    1
    38    21    22    1
    39    53    54   ar
    40   110   108    1
    41    52    54   ar
    42   108   109    1
    43    22    23    1
    44    22    25    1
    45    24    23    2
    46    62    63    1
    47    23    27   am
    48    66    63    1
    49    66    67    1
    50    25    26    1
    51    33    32    2
    52    63    64    1
    53    67    68   ar
    54    67    69   ar
    55    27    28    1
    56    68    70   ar
    57    97    96    2
    58    65    64    2
    59    32    34   am
    60    32    31    1
    61    28    31    1
    62    28    29    1
    63    69    71   ar
    64    70    71   ar
    65     8    10   ar
    66     8     6   ar
    67     5     6    1
    68     5     2    1
    69    10    11   ar
    70     6     7   ar
    71    96    95    1
    72     1     2    1
    73    29    30    2
    74    88    87    2
    75    11    12    1
    76    11     9   ar
    77     7     9   ar
    78     2     3    1
    79    95    94    1
    80    95    98    1
    81     4     3    2
    82    99    98    1
    83    99   100    1
    84    87    94   am
    85    87    86    1
    86    92    91    2
    87   102   100   ar
    88   100   101   ar
    89    90    91    1
    90    90    89    1
    91    86    89    1
    92    86    85    1
    93    91    93   am
    94   146   145    1
    95   147   145    1
    96    81    80    2
    97   152   153    1
    98   152   149    1
    99   145   144    1
   100   132   131    1
   101   132   133    2
   102    72    73    1
   103    80    79    1
   104   150   149    1
   105   150   151    2
   106   135   133    1
   107   131   130    1
   108    83    82    1
   109   149   148    1
   110   144   141    1
   111   133   134    1
   112   128   127    2
   113    78    79    1
   114    78    74   am
   115   129   130    1
   116   129   126    1
   117    79    82    1
   118    73    74    1
   119    73    76    1
   120    82    84    1
   121   141   140    1
   122   141   142    1
   123    74    75    2
   124   127   126    1
   125   127   136   am
   126    77    76    1
   127   140   138   am
   128   126   125    1
   129   139   138    2
   130   138   137    1
   131   137   136    1
   132   142   143    2
   133   124   122   ar
   134   124   123   ar
   135   122   120   ar
   136   123   121   ar
   137   120   119   ar
   138   120   118   ar
   139   121   118   ar
   140   119   117   ar
   141   118   116   ar
   142   113   112    1
   143   113   114    2
   144   112   115    1
   145   112   111    1
   146   117   116   ar
   147   116   115    1
