@<TRIPOS>MOLECULE
tmp/1hgiC04.pdb
 111 105 0 0 0
SMALL
GASTEIGER

@<TRIPOS>ATOM
      1  N         -1.4730   55.8950  -13.2550 N.3    98  TYR98      -0.1241
      2  CA        -1.1070   57.2500  -12.8530 C.3    98  TYR98       0.1605
      3  C          0.3290   57.3190  -12.3080 C.2    98  TYR98       0.2264
      4  O          0.7370   56.3730  -11.6250 O.2    98  TYR98      -0.2867
      5  CB        -2.0670   57.6870  -11.7920 C.3    98  TYR98       0.0534
      6  CG        -2.2200   59.1800  -11.8200 C.ar   98  TYR98      -0.0201
      7  CD1       -1.3570   59.9890  -11.1180 C.ar   98  TYR98      -0.0009
      8  CD2       -3.2440   59.7270  -12.5600 C.ar   98  TYR98      -0.0009
      9  CE1       -1.5290   61.3560  -11.1660 C.ar   98  TYR98       0.0417
     10  CE2       -3.4260   61.0940  -12.6110 C.ar   98  TYR98       0.0417
     11  CZ        -2.5620   61.8930  -11.9080 C.ar   98  TYR98       0.1957
     12  OH        -2.7290   63.2580  -11.9050 O.3    98  TYR98      -0.2866
     13  N        -12.5710   58.9690   -8.7710 N.3   134  GLY134     -0.1210
     14  CA       -11.8970   59.6690   -9.8530 C.3   134  GLY134      0.1956
     15  C        -10.9120   58.7500  -10.5690 C.2   134  GLY134      0.2612
     16  O        -10.3500   57.8340   -9.9550 O.2   134  GLY134     -0.2717
     17  N        -10.6860   58.9910  -11.8550 N.am  135  GLY135     -0.1942
     18  CA        -9.7980   58.1490  -12.6260 C.3   135  GLY135      0.2014
     19  C         -9.0510   59.0070  -13.6010 C.2   135  GLY135      0.2640
     20  O         -9.2140   60.2200  -13.6260 O.2   135  GLY135     -0.2714
     21  N         -8.2550   58.3840  -14.4170 N.am  136  SER136     -0.1935
     22  CA        -7.4180   59.0760  -15.3460 C.3   136  SER136      0.2055
     23  C         -7.2460   58.1770  -16.5320 C.2   136  SER136      0.2643
     24  O         -7.2800   56.9420  -16.4510 O.2   136  SER136     -0.2714
     25  CB        -6.0430   59.3460  -14.7490 C.3   136  SER136      0.2130
     26  OG        -4.9920   59.5230  -15.7080 O.3   136  SER136     -0.2179
     27  N         -6.9450   58.8180  -17.6300 N.am  137  ASN137     -0.1957
     28  CA        -6.6660   58.0910  -18.8210 C.3   137  ASN137      0.1819
     29  C         -5.2920   57.4800  -18.8360 C.2   137  ASN137      0.2621
     30  O         -5.0670   56.5910  -19.6490 O.2   137  ASN137     -0.2715
     31  CB        -6.8170   58.9830  -20.0060 C.3   137  ASN137      0.1195
     32  CG        -8.1770   58.7440  -20.6330 C.2   137  ASN137      0.2630
     33  OD1       -8.8360   57.6940  -20.4800 O.2   137  ASN137     -0.2716
     34  ND2       -8.6340   59.7150  -21.4090 N.am  137  ASN137     -0.0877
     35  N         -4.3600   57.8940  -17.9700 N.am  138  ALA138     -0.1977
     36  CA        -3.0630   57.2300  -17.9040 C.3   138  ALA138      0.1597
     37  C         -3.1940   55.8770  -17.2260 C.2   138  ALA138      0.2287
     38  O         -2.2440   55.0950  -17.2340 O.2   138  ALA138     -0.2864
     39  CB        -2.0510   57.9930  -17.0850 C.3   138  ALA138      0.0319
     40  N        -11.1880   55.3180  -18.5280 N.3   145  SER145     -0.1217
     41  CA       -10.2640   55.8530  -17.5670 C.3   145  SER145      0.1889
     42  C        -10.3210   54.9540  -16.3420 C.2   145  SER145      0.2288
     43  O        -11.3110   54.2190  -16.1880 O.2   145  SER145     -0.2866
     44  CB       -10.7250   57.2400  -17.2410 C.3   145  SER145      0.2089
     45  OG       -10.8520   57.9290  -18.4870 O.3   145  SER145     -0.2183
     46  N         -9.8400   58.2160   -5.4880 N.3   153  TRP153     -0.1241
     47  CA        -9.4570   59.6190   -5.7200 C.3   153  TRP153      0.1605
     48  C        -10.6580   60.5010   -5.4940 C.2   153  TRP153      0.2264
     49  O        -11.6720   60.3160   -6.1690 O.2   153  TRP153     -0.2867
     50  CB        -8.9350   59.7610   -7.1630 C.3   153  TRP153      0.0550
     51  CG        -8.3560   61.0870   -7.6370 C.ar  153  TRP153      0.0003
     52  CD1       -8.3850   62.2360   -6.8890 C.ar  153  TRP153      0.0946
     53  CD2       -7.7570   61.2710   -8.8580 C.ar  153  TRP153      0.0152
     54  NE1       -7.8050   63.1430   -7.6320 N.ar  153  TRP153     -0.2442
     55  CE2       -7.4160   62.6160   -8.8040 C.ar  153  TRP153      0.0810
     56  CE3       -7.4490   60.5350   -9.9680 C.ar  153  TRP153      0.0012
     57  CZ2       -6.7700   63.2510   -9.8470 C.ar  153  TRP153      0.0191
     58  CZ3       -6.7920   61.1590  -11.0160 C.ar  153  TRP153      0.0001
     59  CH2       -6.4610   62.5000  -10.9630 C.ar  153  TRP153      0.0015
     60  N        -12.4740   64.1810   -5.4660 N.3   155  THR155     -0.1218
     61  CA       -12.4560   65.5270   -6.0220 C.3   155  THR155      0.1862
     62  C        -13.6650   66.3010   -5.4980 C.2   155  THR155      0.2287
     63  O        -14.5050   65.7200   -4.7890 O.2   155  THR155     -0.2866
     64  CB       -12.4620   65.4020   -7.5520 C.3   155  THR155      0.1770
     65  OG1      -13.2750   64.2830   -7.9010 O.3   155  THR155     -0.2211
     66  CG2      -11.0300   65.2780   -8.0780 C.3   155  THR155      0.0375
     67  N         -2.3850   63.9050   -3.9900 N.3   183  HIS183     -0.1241
     68  CA        -2.1990   64.2720   -5.3930 C.3   183  HIS183      0.1621
     69  C         -1.4630   65.5960   -5.4870 C.2   183  HIS183      0.2264
     70  O         -1.8500   66.5390   -4.7830 O.2   183  HIS183     -0.2867
     71  CB        -3.5590   64.3880   -6.0690 C.3   183  HIS183      0.0745
     72  CG        -3.5290   64.8930   -7.5080 C.ar  183  HIS183      0.0817
     73  ND1       -3.9650   66.1100   -7.7860 N.ar  183  HIS183     -0.2268
     74  CD2       -3.1610   64.1930   -8.6170 C.ar  183  HIS183      0.1154
     75  CE1       -3.8850   66.1960   -9.0990 C.ar  183  HIS183      0.1986
     76  NE2       -3.4100   65.0560   -9.5730 N.ar  183  HIS183     -0.2212
     77  N         -5.2230   73.7330  -11.8860 N.3   190  GLU190     -0.1245
     78  CA        -5.5710   72.3320  -11.6710 C.3   190  GLU190      0.1567
     79  C         -6.0020   72.0760  -10.2230 C.2   190  GLU190      0.2260
     80  O         -7.0240   71.4340   -9.9680 O.2   190  GLU190     -0.2867
     81  CB        -4.3670   71.5000  -12.0100 C.3   190  GLU190      0.0388
     82  CG        -4.6340   70.1260  -12.6100 C.3   190  GLU190      0.1160
     83  CD        -3.3660   69.2930  -12.6590 C.2   190  GLU190      0.3649
     84  OE1       -3.0200   68.7360  -11.6220 O.co2 190  GLU190     -0.2457
     85  OE2       -2.6900   69.2030  -13.6890 O.co2 190  GLU190     -0.2457
     86  N         -9.9130   70.9780   -9.1680 N.3   194  LEU194     -0.1245
     87  CA       -10.2430   69.7110   -8.5650 C.3   194  LEU194      0.1561
     88  C        -10.6100   69.8240   -7.1010 C.2   194  LEU194      0.2260
     89  O        -11.5770   69.2120   -6.6550 O.2   194  LEU194     -0.2867
     90  CB        -9.0730   68.7720   -8.7060 C.3   194  LEU194      0.0270
     91  CG        -8.5880   68.3670  -10.0690 C.3   194  LEU194      0.0019
     92  CD1       -7.3390   67.5300   -9.9760 C.3   194  LEU194      0.0001
     93  CD2       -9.6440   67.5350  -10.7240 C.3   194  LEU194      0.0001
     94  N          1.4730   61.1100  -20.3310 N.3   225  GLY225     -0.1210
     95  CA         0.6160   62.2440  -20.6110 C.3   225  GLY225      0.1956
     96  C          0.4480   63.2060  -19.4530 C.2   225  GLY225      0.2611
     97  O         -0.2320   64.2220  -19.6050 O.2   225  GLY225     -0.2717
     98  N          1.1070   62.9580  -18.3180 N.am  226  LEU226     -0.1979
     99  CA         0.8910   63.7650  -17.1350 C.3   226  LEU226      0.1596
    100  C          2.1300   64.3260  -16.4590 C.2   226  LEU226      0.2287
    101  O          3.1890   63.6860  -16.4100 O.2   226  LEU226     -0.2864
    102  CB         0.1260   62.9300  -16.1570 C.3   226  LEU226      0.0297
    103  CG        -1.3310   62.7300  -16.4640 C.3   226  LEU226      0.0022
    104  CD1       -1.7220   61.3390  -16.0670 C.3   226  LEU226      0.0001
    105  CD2       -2.1550   63.7480  -15.7360 C.3   226  LEU226      0.0001
    106  N          1.5120   65.7240  -13.3310 N.3   228  SER228     -0.1217
    107  CA         1.1470   65.5850  -11.9440 C.3   228  SER228      0.1889
    108  C          1.7180   64.2630  -11.4330 C.2   228  SER228      0.2288
    109  O          2.2690   63.4510  -12.2160 O.2   228  SER228     -0.2866
    110  CB        -0.3500   65.6040  -11.8620 C.3   228  SER228      0.2089
    111  OG        -0.8660   66.0270  -13.1190 O.3   228  SER228     -0.2183
@<TRIPOS>BOND
     1    34    32   am
     2    32    33    2
     3    32    31    1
     4    95    94    1
     5    95    96    1
     6    31    28    1
     7    30    29    2
     8    97    96    2
     9    96    98   am
    10    29    28    1
    11    29    35   am
    12    28    27    1
    13    40    41    1
    14    45    44    1
    15    98    99    1
    16    35    36    1
    17    36    37    1
    18    36    39    1
    19    27    23   am
    20    41    44    1
    21    41    42    1
    22    38    37    2
    23    99   100    1
    24    99   102    1
    25    23    24    2
    26    23    22    1
    27   103   102    1
    28   103   104    1
    29   103   105    1
    30   100   101    2
    31    42    43    2
    32    26    25    1
    33    22    25    1
    34    22    21    1
    35    21    19   am
    36    85    83   ar
    37    20    19    2
    38    19    18    1
    39   106   107    1
    40     1     2    1
    41   111   110    1
    42     2     3    1
    43     2     5    1
    44    83    82    1
    45    83    84   ar
    46    18    17    1
    47    10     8   ar
    48    10    11   ar
    49    82    81    1
    50     8     6   ar
    51     3     4    2
    52   109   108    2
    53    81    78    1
    54   107   110    1
    55   107   108    1
    56    11    12    1
    57    11     9   ar
    58    77    78    1
    59    17    15   am
    60     6     5    1
    61     6     7   ar
    62    78    79    1
    63     9     7   ar
    64    58    59   ar
    65    58    56   ar
    66    59    57   ar
    67    93    91    1
    68    15    16    2
    69    15    14    1
    70    79    80    2
    71    91    92    1
    72    91    90    1
    73    56    53   ar
    74    14    13    1
    75    57    55   ar
    76    76    75   ar
    77    76    74   ar
    78    86    87    1
    79    75    73   ar
    80    53    55   ar
    81    53    51   ar
    82    55    54   ar
    83    90    87    1
    84    74    72   ar
    85    87    88    1
    86    66    64    1
    87    65    64    1
    88    73    72   ar
    89    51    50    1
    90    51    52   ar
    91    54    52   ar
    92    64    61    1
    93    72    71    1
    94    50    47    1
    95    88    89    2
    96    49    48    2
    97    71    68    1
    98    61    62    1
    99    61    60    1
   100    47    48    1
   101    47    46    1
   102    62    63    2
   103    69    68    1
   104    69    70    2
   105    68    67    1
