@<TRIPOS>MOLECULE
tmp/1hgjE04.pdb
 107 101 0 0 0
SMALL
GASTEIGER

@<TRIPOS>ATOM
      1  N         28.6800   82.4020    1.8150 N.3    98  TYR98      -0.1241
      2  CA        27.3270   82.5530    2.3350 C.3    98  TYR98       0.1605
      3  C         27.0080   81.4120    3.2850 C.2    98  TYR98       0.2264
      4  O         27.3330   80.2840    2.9320 O.2    98  TYR98      -0.2867
      5  CB        26.3440   82.5430    1.1820 C.3    98  TYR98       0.0534
      6  CG        25.1020   83.3150    1.5450 C.ar   98  TYR98      -0.0201
      7  CD1       24.1210   82.7490    2.3180 C.ar   98  TYR98      -0.0009
      8  CD2       24.9640   84.6120    1.1240 C.ar   98  TYR98      -0.0009
      9  CE1       23.0050   83.4830    2.6740 C.ar   98  TYR98       0.0417
     10  CE2       23.8490   85.3500    1.4760 C.ar   98  TYR98       0.0417
     11  CZ        22.8700   84.7810    2.2510 C.ar   98  TYR98       0.1957
     12  OH        21.7360   85.4810    2.6090 O.3    98  TYR98      -0.2866
     13  N         23.6040   86.6740   -8.5750 N.3   134  GLY134     -0.1210
     14  CA        23.6240   87.3490   -7.2870 C.3   134  GLY134      0.1956
     15  C         24.7770   86.8440   -6.4310 C.2   134  GLY134      0.2612
     16  O         25.1690   85.6740   -6.5280 O.2   134  GLY134     -0.2717
     17  N         25.3130   87.7210   -5.6090 N.am  135  GLY135     -0.1942
     18  CA        26.4240   87.3880   -4.7600 C.3   135  GLY135      0.2014
     19  C         26.2230   88.0980   -3.4400 C.2   135  GLY135      0.2640
     20  O         25.2260   88.7910   -3.2480 O.2   135  GLY135     -0.2714
     21  N         27.1740   87.9870   -2.5420 N.am  136  SER136     -0.1935
     22  CA        27.0560   88.5370   -1.2300 C.3   136  SER136      0.2055
     23  C         28.4330   88.9490   -0.8010 C.2   136  SER136      0.2643
     24  O         29.4580   88.4350   -1.2680 O.2   136  SER136     -0.2714
     25  CB        26.5320   87.4900   -0.2760 C.3   136  SER136      0.2130
     26  OG        26.7420   87.7910    1.1000 O.3   136  SER136     -0.2179
     27  N         28.4430   89.8480    0.1490 N.am  137  ASN137     -0.1957
     28  CA        29.6810   90.3040    0.6810 C.3   137  ASN137      0.1819
     29  C         30.2270   89.3330    1.6740 C.2   137  ASN137      0.2621
     30  O         31.4090   89.4520    2.0040 O.2   137  ASN137     -0.2715
     31  CB        29.5520   91.6400    1.3530 C.3   137  ASN137      0.1195
     32  CG        30.1880   92.7450    0.5140 C.2   137  ASN137      0.2630
     33  OD1       30.9590   92.5340   -0.4510 O.2   137  ASN137     -0.2716
     34  ND2       29.9020   93.9890    0.8850 N.am  137  ASN137     -0.0877
     35  N         29.4350   88.3590    2.1290 N.am  138  ALA138     -0.1977
     36  CA        29.9810   87.3280    2.9930 C.3   138  ALA138      0.1597
     37  C         30.7410   86.2880    2.1860 C.2   138  ALA138      0.2287
     38  O         31.3880   85.4010    2.7480 O.2   138  ALA138     -0.2864
     39  CB        28.8980   86.6050    3.7350 C.3   138  ALA138      0.0319
     40  N         31.7910   91.3420   -4.0270 N.3   145  SER145     -0.1217
     41  CA        30.9010   90.3420   -3.5000 C.3   145  SER145      0.1889
     42  C         31.0770   89.0960   -4.3530 C.2   145  SER145      0.2288
     43  O         31.7240   89.1670   -5.4110 O.2   145  SER145     -0.2866
     44  CB        29.5150   90.8540   -3.6240 C.3   145  SER145      0.2089
     45  OG        29.5040   92.1230   -2.9980 O.3   145  SER145     -0.2183
     46  N         22.5910   82.4450   -8.0190 N.3   153  TRP153     -0.1241
     47  CA        21.5250   83.0200   -7.1830 C.3   153  TRP153      0.1605
     48  C         20.6220   83.9330   -7.9710 C.2   153  TRP153      0.2264
     49  O         21.0520   85.0060   -8.3810 O.2   153  TRP153     -0.2867
     50  CB        22.1680   83.7900   -6.0200 C.3   153  TRP153      0.0550
     51  CG        21.3190   84.3690   -4.8870 C.ar  153  TRP153      0.0003
     52  CD1       19.9570   84.2870   -4.8170 C.ar  153  TRP153      0.0946
     53  CD2       21.8460   85.0220   -3.8110 C.ar  153  TRP153      0.0152
     54  NE1       19.6320   84.8790   -3.7000 N.ar  153  TRP153     -0.2442
     55  CE2       20.7180   85.3270   -3.0770 C.ar  153  TRP153      0.0810
     56  CE3       23.0930   85.3820   -3.3710 C.ar  153  TRP153      0.0012
     57  CZ2       20.8010   85.9990   -1.8820 C.ar  153  TRP153      0.0191
     58  CZ3       23.1830   86.0570   -2.1780 C.ar  153  TRP153      0.0001
     59  CH2       22.0560   86.3590   -1.4450 C.ar  153  TRP153      0.0015
     60  N         17.3540   86.3620   -8.3830 N.3   155  THR155     -0.1218
     61  CA        16.5280   87.3290   -7.6800 C.3   155  THR155      0.1862
     62  C         15.6360   87.9930   -8.7120 C.2   155  THR155      0.2287
     63  O         15.8200   87.7520   -9.9140 O.2   155  THR155     -0.2866
     64  CB        17.4150   88.3560   -6.9800 C.3   155  THR155      0.1770
     65  OG1       18.5730   88.5820   -7.7840 O.3   155  THR155     -0.2211
     66  CG2       17.8080   87.8740   -5.6110 C.3   155  THR155      0.0375
     67  N         17.1110   79.5580   -0.7390 N.3   183  HIS183     -0.1241
     68  CA        17.4930   80.6070    0.1910 C.3   183  HIS183      0.1621
     69  C         16.3800   80.7920    1.1940 C.2   183  HIS183      0.2264
     70  O         15.2180   80.9860    0.8130 O.2   183  HIS183     -0.2867
     71  CB        17.7140   81.9120   -0.5490 C.3   183  HIS183      0.0745
     72  CG        18.0310   83.1230    0.3140 C.ar  183  HIS183      0.0817
     73  ND1       17.1570   84.0900    0.4070 N.ar  183  HIS183     -0.2268
     74  CD2       19.1990   83.3950    0.9650 C.ar  183  HIS183      0.1154
     75  CE1       17.7700   85.0000    1.1220 C.ar  183  HIS183      0.1986
     76  NE2       18.9770   84.5870    1.4510 N.ar  183  HIS183     -0.2212
     77  N         12.8340   90.7120    3.5980 N.3   190  GLU190     -0.1196
     78  CA        13.8900   90.1790    2.7440 C.3   190  GLU190      0.1783
     79  C         13.2790   89.3190    1.6390 C.2   190  GLU190      0.2306
     80  O         13.6270   89.4350    0.4510 O.2   190  GLU190     -0.2863
     81  CB        14.8610   89.3510    3.5940 C.2   190  GLU190      0.0071
     82  CG        16.1240   88.8670    2.8810 C.2   190  GLU190      0.0834
     83  CD        17.1450   88.0620    3.6870 C.2   190  GLU190      0.3877
     84  OE1       17.3030   88.2300    4.8950 O.co2 190  GLU190     -0.2406
     85  OE2       17.8650   87.2510    3.1160 O.co2 190  GLU190     -0.2406
     86  N         13.6820   90.4080   -2.3510 N.3   194  LEU194     -0.1245
     87  CA        14.3960   89.6150   -3.3060 C.3   194  LEU194      0.1561
     88  C         13.5120   88.8520   -4.2840 C.2   194  LEU194      0.2260
     89  O         13.7180   88.8840   -5.5010 O.2   194  LEU194     -0.2867
     90  CB        15.2640   88.6510   -2.5590 C.3   194  LEU194      0.0270
     91  CG        16.3410   89.1620   -1.6550 C.3   194  LEU194      0.0019
     92  CD1       16.9370   88.0370   -0.8780 C.3   194  LEU194      0.0001
     93  CD2       17.4410   89.7670   -2.4700 C.3   194  LEU194      0.0001
     94  N         25.3630   87.5430    8.3220 N.3   226  LEU226     -0.1245
     95  CA        24.0560   87.1210    7.8780 C.3   226  LEU226      0.1561
     96  C         23.2490   86.2520    8.8350 C.2   226  LEU226      0.2260
     97  O         23.7940   85.4670    9.6090 O.2   226  LEU226     -0.2867
     98  CB        24.2790   86.4260    6.5700 C.3   226  LEU226      0.0270
     99  CG        24.6730   87.3510    5.4620 C.3   226  LEU226      0.0019
    100  CD1       25.5370   86.6390    4.4630 C.3   226  LEU226      0.0001
    101  CD2       23.4270   87.8880    4.8420 C.3   226  LEU226      0.0001
    102  N         20.3610   84.8530    7.3100 N.3   228  SER228     -0.1217
    103  CA        19.7130   84.0210    6.3280 C.3   228  SER228      0.1889
    104  C         20.5580   82.7700    6.1880 C.2   228  SER228      0.2288
    105  O         21.6680   82.7210    6.7300 O.2   228  SER228     -0.2866
    106  CB        19.6700   84.7620    5.0210 C.3   228  SER228      0.2089
    107  OG        19.8250   86.1780    5.1370 O.3   228  SER228     -0.2183
@<TRIPOS>BOND
     1    63    62    2
     2    62    61    1
     3    13    14    1
     4    60    61    1
     5    49    48    2
     6    46    47    1
     7    48    47    1
     8    65    64    1
     9    61    64    1
    10    14    15    1
    11    47    50    1
    12    64    66    1
    13    16    15    2
    14    15    17   am
    15    50    51    1
    16    17    18    1
    17    89    88    2
    18    43    42    2
    19    51    52   ar
    20    51    53   ar
    21    52    54   ar
    22    18    19    1
    23    42    41    1
    24    88    87    1
    25    40    41    1
    26    53    56   ar
    27    53    55   ar
    28    54    55   ar
    29    44    41    1
    30    44    45    1
    31    19    20    2
    32    19    21   am
    33    56    58   ar
    34    87    90    1
    35    87    86    1
    36    55    57   ar
    37    90    91    1
    38    21    22    1
    39    93    91    1
    40    58    59   ar
    41    57    59   ar
    42    91    92    1
    43    24    23    2
    44    22    23    1
    45    22    25    1
    46    23    27   am
    47    67    68    1
    48    71    68    1
    49    71    72    1
    50    33    32    2
    51    25    26    1
    52    27    28    1
    53    68    69    1
    54    72    73   ar
    55    72    74   ar
    56    73    75   ar
    57    80    79    2
    58    32    34   am
    59    32    31    1
    60    28    31    1
    61    28    29    1
    62    70    69    2
    63    74    76   ar
    64    75    76   ar
    65     8    10   ar
    66     8     6   ar
    67     5     6    1
    68     5     2    1
    69    10    11   ar
    70     6     7   ar
    71    79    78    1
    72    29    30    2
    73    29    35   am
    74     1     2    1
    75    35    36    1
    76    37    38    2
    77    37    36    1
    78    11    12    1
    79    11     9   ar
    80     7     9   ar
    81     2     3    1
    82    78    81    1
    83    78    77    1
    84    82    81    2
    85    82    83    1
    86     4     3    2
    87    36    39    1
    88    85    83   ar
    89    83    84   ar
    90   100    99    1
    91   101    99    1
    92   106   107    1
    93   106   103    1
    94    99    98    1
    95   104   103    1
    96   104   105    2
    97   103   102    1
    98    98    95    1
    99    95    94    1
   100    95    96    1
   101    96    97    2
