@<TRIPOS>MOLECULE
tmp/1hgxA00.pdb
 134 132 0 0 0
SMALL
GASTEIGER

@<TRIPOS>ATOM
      1  N         -6.0070    1.1890   19.4280 N.3    87  GLU87      -0.1231
      2  CA        -5.4290    2.0380   20.4620 C.3    87  GLU87       0.1699
      3  C         -5.0080    1.2330   21.6960 C.2    87  GLU87       0.2592
      4  O         -5.4390    0.0900   21.8810 O.2    87  GLU87      -0.2718
      5  CB        -6.4700    3.1180   20.8390 C.3    87  GLU87       0.0402
      6  CG        -6.0730    4.0780   21.9650 C.3    87  GLU87       0.1161
      7  CD        -4.8700    4.9630   21.6280 C.2    87  GLU87       0.3649
      8  OE1       -3.7460    4.4430   21.4600 O.co2  87  GLU87      -0.2457
      9  OE2       -5.0460    6.1940   21.5550 O.co2  87  GLU87      -0.2457
     10  N         -4.1320    1.8180   22.5130 N.am   88  ASP88      -0.1960
     11  CA        -3.6640    1.1590   23.7240 C.3    88  ASP88       0.1840
     12  C         -4.5880    1.3270   24.9370 C.2    88  ASP88       0.2622
     13  O         -5.0160    0.3370   25.5290 O.2    88  ASP88      -0.2715
     14  CB        -2.1920    1.5220   24.0580 C.3    88  ASP88       0.1450
     15  CG        -1.9000    3.0410   24.0800 C.2    88  ASP88       0.3671
     16  OD1       -2.8180    3.8860   24.0880 O.co2  88  ASP88      -0.2456
     17  OD2       -0.7000    3.3860   24.1050 O.co2  88  ASP88      -0.2456
     18  N         -4.9260    2.5670   25.2810 N.am   89  ILE89      -0.1963
     19  CA        -5.7970    2.8200   26.4190 C.3    89  ILE89       0.1727
     20  C         -6.5600    4.1290   26.2400 C.2    89  ILE89       0.2616
     21  O         -6.0490    5.0910   25.6620 O.2    89  ILE89      -0.2715
     22  CB        -4.9910    2.8510   27.7510 C.3    89  ILE89       0.0290
     23  CG1       -5.9260    2.9720   28.9620 C.3    89  ILE89       0.0022
     24  CG2       -3.9900    3.9930   27.7490 C.3    89  ILE89       0.0023
     25  CD1       -5.2160    2.7480   30.2720 C.3    89  ILE89       0.0001
     26  N         -7.8210    4.1170   26.6520 N.am   90  ILE90      -0.1963
     27  CA        -8.6720    5.2960   26.5800 C.3    90  ILE90       0.1727
     28  C         -8.8950    5.7590   28.0180 C.2    90  ILE90       0.2616
     29  O         -9.3950    5.0020   28.8550 O.2    90  ILE90      -0.2715
     30  CB       -10.0000    4.9830   25.8720 C.3    90  ILE90       0.0290
     31  CG1       -9.7170    4.7010   24.3870 C.3    90  ILE90       0.0022
     32  CG2      -10.9890    6.1470   26.0280 C.3    90  ILE90       0.0023
     33  CD1      -10.9320    4.3470   23.5770 C.3    90  ILE90       0.0001
     34  N         -8.4290    6.9690   28.3080 N.am   91  ASP91      -0.1957
     35  CA        -8.5420    7.5550   29.6330 C.3    91  ASP91       0.1840
     36  C         -9.7650    8.4810   29.6860 C.2    91  ASP91       0.2623
     37  O        -10.8720    8.0200   29.9430 O.2    91  ASP91      -0.2715
     38  CB        -7.2440    8.3050   29.9560 C.3    91  ASP91       0.1450
     39  CG        -7.1510    8.7430   31.4080 C.2    91  ASP91       0.3671
     40  OD1       -8.1540    8.6850   32.1530 O.co2  91  ASP91      -0.2456
     41  OD2       -6.0450    9.1630   31.8050 O.co2  91  ASP91      -0.2456
     42  N         -9.5840    9.7760   29.4320 N.am   92  THR92      -0.1937
     43  CA       -10.7120   10.7040   29.4680 C.3    92  THR92       0.2028
     44  C        -11.5050   10.6560   28.1720 C.2    92  THR92       0.2643
     45  O        -12.6210   11.1760   28.1000 O.2    92  THR92      -0.2714
     46  CB       -10.2520   12.1490   29.6780 C.3    92  THR92       0.1808
     47  OG1       -9.5260   12.5910   28.5250 O.3    92  THR92      -0.2208
     48  CG2       -9.3640   12.2570   30.9130 C.3    92  THR92       0.0379
     49  N        -10.9040   10.0800   27.1360 N.am   93  GLY93      -0.1939
     50  CA       -11.5750    9.9850   25.8550 C.3    93  GLY93       0.2014
     51  C        -11.2610   11.1260   24.9030 C.2    93  GLY93       0.2639
     52  O        -11.6560   11.0760   23.7360 O.2    93  GLY93      -0.2714
     53  N        -10.5310   12.1380   25.3660 N.am   94  LEU94      -0.1963
     54  CA       -10.1970   13.2880   24.5230 C.3    94  LEU94       0.1728
     55  C         -9.4490   12.9250   23.2360 C.2    94  LEU94       0.2617
     56  O         -9.8530   13.3320   22.1450 O.2    94  LEU94      -0.2715
     57  CB        -9.3930   14.3190   25.3140 C.3    94  LEU94       0.0311
     58  CG        -8.8550   15.5310   24.5430 C.3    94  LEU94       0.0022
     59  CD1       -9.9890   16.3820   24.0110 C.3    94  LEU94       0.0001
     60  CD2       -7.9600   16.3500   25.4450 C.3    94  LEU94       0.0001
     61  N         -8.3500   12.1890   23.3650 N.am   95  THR95      -0.1937
     62  CA        -7.5550   11.7920   22.2080 C.3    95  THR95       0.2028
     63  C         -8.3720   11.0630   21.1350 C.2    95  THR95       0.2642
     64  O         -8.3860   11.4730   19.9720 O.2    95  THR95      -0.2714
     65  CB        -6.3490   10.9220   22.6220 C.3    95  THR95       0.1808
     66  OG1       -5.5920   11.6010   23.6320 O.3    95  THR95      -0.2208
     67  CG2       -5.4390   10.6860   21.4250 C.3    95  THR95       0.0379
     68  N         -9.0780   10.0100   21.5330 N.am   96  MET96      -0.1976
     69  CA        -9.8850    9.2390   20.5980 C.3    96  MET96       0.1605
     70  C        -11.0510   10.0470   20.0300 C.2    96  MET96       0.2287
     71  O        -11.3910    9.9110   18.8540 O.2    96  MET96      -0.2864
     72  CB       -10.3880    7.9540   21.2650 C.3    96  MET96       0.0413
     73  CG       -10.9570    6.9210   20.3030 C.3    96  MET96       0.0598
     74  SD        -9.8470    6.5240   18.9150 S.3    96  MET96      -0.1393
     75  CE        -8.3370    6.1630   19.7460 C.3    96  MET96       0.0692
     76  N         -9.6440    2.7110   30.7560 N.3   119  LYS119     -0.1245
     77  CA        -9.4590    3.0890   32.1520 C.3   119  LYS119      0.1561
     78  C        -10.8010    3.5120   32.7490 C.2   119  LYS119      0.2260
     79  O        -11.4780    4.3840   32.2200 O.2   119  LYS119     -0.2867
     80  CB        -8.4400    4.2260   32.2710 C.3   119  LYS119      0.0271
     81  CG        -8.0480    4.5210   33.7110 C.3   119  LYS119      0.0035
     82  CD        -6.9830    5.6000   33.8190 C.3   119  LYS119      0.0206
     83  CE        -5.6660    5.1500   33.2400 C.3   119  LYS119      0.1093
     84  NZ        -4.5640    6.0720   33.6120 N.3   119  LYS119     -0.1314
     85  N         -5.4250    3.9800   37.6530 N.3   140  ARG140     -0.1231
     86  CA        -4.0420    4.0790   38.1260 C.3   140  ARG140      0.1694
     87  C         -3.1650    4.1990   36.8780 C.2   140  ARG140      0.2592
     88  O         -3.6570    4.0370   35.7580 O.2   140  ARG140     -0.2718
     89  CB        -3.6300    2.8270   38.9180 C.3   140  ARG140      0.0321
     90  CG        -4.4530    2.5210   40.1780 C.3   140  ARG140      0.0489
     91  CD        -4.2300    3.5320   41.2890 C.3   140  ARG140      0.2205
     92  NE        -2.8160    3.6420   41.6420 N.pl3 140  ARG140     -0.0865
     93  CZ        -2.1630    2.8090   42.4500 C.cat 140  ARG140      0.5346
     94  NH1       -2.7880    1.7840   43.0120 N.pl3 140  ARG140      0.1354
     95  NH2       -0.8660    2.9800   42.6530 N.pl3 140  ARG140      0.1354
     96  N         -1.8790    4.4980   37.0590 N.am  141  TYR141     -0.1962
     97  CA        -0.9860    4.6180   35.9150 C.3   141  TYR141      0.1771
     98  C         -0.5680    3.2260   35.5010 C.2   141  TYR141      0.2619
     99  O          0.1330    2.5360   36.2350 O.2   141  TYR141     -0.2715
    100  CB         0.2550    5.4590   36.2230 C.3   141  TYR141      0.0574
    101  CG         0.9930    5.8460   34.9550 C.ar  141  TYR141     -0.0198
    102  CD1        0.5480    6.9090   34.1730 C.ar  141  TYR141     -0.0009
    103  CD2        2.0900    5.1110   34.5030 C.ar  141  TYR141     -0.0009
    104  CE1        1.1610    7.2240   32.9780 C.ar  141  TYR141      0.0417
    105  CE2        2.7140    5.4240   33.3020 C.ar  141  TYR141      0.0417
    106  CZ         2.2440    6.4810   32.5500 C.ar  141  TYR141      0.1957
    107  OH         2.8510    6.8020   31.3620 O.3   141  TYR141     -0.2866
    108  N         -1.0430    2.8200   34.3330 N.am  142  ILE142     -0.1977
    109  CA        -0.7700    1.5070   33.7770 C.3   142  ILE142      0.1596
    110  C          0.5910    1.4420   33.0900 C.2   142  ILE142      0.2287
    111  O          0.9800    2.3390   32.3240 O.2   142  ILE142     -0.2864
    112  CB        -1.9270    1.0760   32.8240 C.3   142  ILE142      0.0276
    113  CG1       -3.2570    1.1300   33.5840 C.3   142  ILE142      0.0022
    114  CG2       -1.6870   -0.3150   32.2450 C.3   142  ILE142      0.0022
    115  CD1       -3.2550    0.3730   34.9260 C.3   142  ILE142      0.0001
    116  N          2.9240   -0.1900   27.2730 N.3   147  PHE147     -0.1227
    117  CA         2.7240    1.0090   28.1020 C.3   147  PHE147      0.1736
    118  C          4.0400    1.3690   28.7780 C.2   147  PHE147      0.2595
    119  O          4.6180    0.5420   29.4860 O.2   147  PHE147     -0.2718
    120  CB         1.6810    0.7640   29.1960 C.3   147  PHE147      0.0547
    121  CG         0.2930    0.5420   28.6810 C.ar  147  PHE147     -0.0202
    122  CD1       -0.4120    1.5740   28.0780 C.ar  147  PHE147     -0.0042
    123  CD2       -0.3200   -0.6960   28.8120 C.ar  147  PHE147     -0.0042
    124  CE1       -1.7090    1.3750   27.6140 C.ar  147  PHE147     -0.0003
    125  CE2       -1.6210   -0.9020   28.3490 C.ar  147  PHE147     -0.0003
    126  CZ        -2.3160    0.1350   27.7490 C.ar  147  PHE147     -0.0000
    127  N          4.5040    2.5990   28.5720 N.am  148  ASP148     -0.1974
    128  CA         5.7610    3.0530   29.1610 C.3   148  ASP148      0.1709
    129  C          5.5710    4.2040   30.1330 C.2   148  ASP148      0.2293
    130  O          4.5050    4.8200   30.2010 O.2   148  ASP148     -0.2864
    131  CB         6.7200    3.5430   28.0630 C.3   148  ASP148      0.1436
    132  CG         6.3930    4.9600   27.5870 C.2   148  ASP148      0.3671
    133  OD1        5.4410    5.1240   26.7960 O.co2 148  ASP148     -0.2456
    134  OD2        7.0740    5.9170   28.0210 O.co2 148  ASP148     -0.2456
@<TRIPOS>BOND
     1    71    70    2
     2    74    75    1
     3    74    73    1
     4     1     2    1
     5    64    63    2
     6    70    69    1
     7    73    72    1
     8     2     5    1
     9     2     3    1
    10    69    72    1
    11    69    68    1
    12     5     6    1
    13    63    68   am
    14    63    62    1
    15    67    65    1
    16     8     7   ar
    17     9     7   ar
    18     7     6    1
    19     3     4    2
    20     3    10   am
    21    56    55    2
    22    62    65    1
    23    62    61    1
    24    10    11    1
    25    65    66    1
    26    55    61   am
    27    55    54    1
    28    33    31    1
    29    11    14    1
    30    11    12    1
    31    52    51    2
    32    59    58    1
    33    14    15    1
    34    15    16   ar
    35    15    17   ar
    36    31    30    1
    37    54    57    1
    38    54    53    1
    39    58    57    1
    40    58    60    1
    41    51    53   am
    42    51    50    1
    43    12    18   am
    44    12    13    2
    45    18    19    1
    46    21    20    2
    47    50    49    1
    48    30    32    1
    49    30    27    1
    50    20    19    1
    51    20    26   am
    52    19    22    1
    53    27    26    1
    54    27    28    1
    55   133   132   ar
    56    49    44   am
    57   116   117    1
    58   132   134   ar
    59   132   131    1
    60   124   126   ar
    61   124   122   ar
    62   126   125   ar
    63    24    22    1
    64    22    23    1
    65    28    34   am
    66    28    29    2
    67   131   128    1
    68   122   121   ar
    69    45    44    2
    70   117   118    1
    71   117   120    1
    72    44    43    1
    73    34    35    1
    74   125   123   ar
    75    47    46    1
    76   127   118   am
    77   127   128    1
    78   121   123   ar
    79   121   120    1
    80   118   119    2
    81    23    25    1
    82   128   129    1
    83    42    43    1
    84    42    36   am
    85    43    46    1
    86    35    36    1
    87    35    38    1
    88    46    48    1
    89    36    37    2
    90    38    39    1
    91   129   130    2
    92    76    77    1
    93   107   106    1
    94    39    41   ar
    95    39    40   ar
    96    77    80    1
    97    77    78    1
    98    79    78    2
    99   114   112    1
   100    80    81    1
   101   111   110    2
   102   106   104   ar
   103   106   105   ar
   104   112   113    1
   105   112   109    1
   106   104   102   ar
   107   110   109    1
   108    83    84    1
   109    83    82    1
   110   105   103   ar
   111   113   115    1
   112    81    82    1
   113   109   108    1
   114   102   101   ar
   115   108    98   am
   116   103   101   ar
   117   101   100    1
   118    98    97    1
   119    98    99    2
   120    88    87    2
   121    97   100    1
   122    97    96    1
   123    87    96   am
   124    87    86    1
   125    85    86    1
   126    86    89    1
   127    89    90    1
   128    90    91    1
   129    91    92    1
   130    92    93    2
   131    93    95    1
   132    93    94    1
