@<TRIPOS>MOLECULE
tmp/1hgyA06.pdb
 134 128 0 0 0
SMALL
GASTEIGER

@<TRIPOS>ATOM
      1  N         28.7680   27.5790   25.0320 N.3    85  TYR85      -0.1241
      2  CA        29.9220   26.8220   24.5460 C.3    85  TYR85       0.1605
      3  C         30.0970   25.4570   25.2170 C.2    85  TYR85       0.2264
      4  O         30.9200   25.3040   26.1120 O.2    85  TYR85      -0.2867
      5  CB        31.1560   27.6900   24.8000 C.3    85  TYR85       0.0534
      6  CG        32.4820   27.1150   24.4010 C.ar   85  TYR85      -0.0201
      7  CD1       32.7760   26.8600   23.0700 C.ar   85  TYR85      -0.0009
      8  CD2       33.4780   26.8930   25.3530 C.ar   85  TYR85      -0.0009
      9  CE1       34.0370   26.4030   22.6880 C.ar   85  TYR85       0.0417
     10  CE2       34.7450   26.4320   24.9820 C.ar   85  TYR85       0.0417
     11  CZ        35.0150   26.1910   23.6480 C.ar   85  TYR85       0.1957
     12  OH        36.2530   25.7190   23.2610 O.3    85  TYR85      -0.2866
     13  N         35.5030   22.1020   19.9690 N.3    91  ASP91      -0.1239
     14  CA        36.8320   22.4710   19.4860 C.3    91  ASP91       0.1674
     15  C         37.4460   21.3040   18.7090 C.2    91  ASP91       0.2266
     16  O         38.5290   20.8270   19.0470 O.2    91  ASP91      -0.2867
     17  CB        37.6980   22.7960   20.7050 C.3    91  ASP91       0.1410
     18  CG        38.9460   23.5600   20.3520 C.2    91  ASP91       0.3668
     19  OD1       38.9560   24.2270   19.2940 O.co2  91  ASP91      -0.2456
     20  OD2       39.9150   23.5010   21.1410 O.co2  91  ASP91      -0.2456
     21  N         38.9950   21.0530   15.8870 N.3    93  ALA93      -0.1231
     22  CA        40.2560   21.2540   15.1800 C.3    93  ALA93       0.1694
     23  C         41.4590   21.4630   16.0910 C.2    93  ALA93       0.2591
     24  O         42.5770   21.6070   15.6090 O.2    93  ALA93      -0.2718
     25  CB        40.1310   22.4240   14.2140 C.3    93  ALA93       0.0304
     26  N         41.2380   21.4820   17.4020 N.am   94  ALA94      -0.1980
     27  CA        42.3320   21.6730   18.3470 C.3    94  ALA94       0.1597
     28  C         42.2020   20.6930   19.5050 C.2    94  ALA94       0.2287
     29  O         41.2690   19.8910   19.5390 O.2    94  ALA94      -0.2864
     30  CB        42.3280   23.1020   18.8630 C.3    94  ALA94       0.0319
     31  N         40.8540   22.9270   24.2510 N.3    97  SER97      -0.1217
     32  CA        39.5670   23.1280   24.9030 C.3    97  SER97       0.1889
     33  C         38.5910   21.9670   24.8310 C.2    97  SER97       0.2288
     34  O         37.3840   22.1830   24.7260 O.2    97  SER97      -0.2866
     35  CB        38.8910   24.3880   24.3490 C.3    97  SER97       0.2089
     36  OG        39.6870   25.5400   24.5740 O.3    97  SER97      -0.2183
     37  N         31.3670   29.4310   19.8720 N.3   136  PRO136     -0.2102
     38  CA        32.5270   29.8720   19.0970 C.3   136  PRO136      0.1504
     39  C         33.2540   28.6590   18.5240 C.2   136  PRO136      0.2575
     40  O         33.1280   27.5470   19.0370 O.2   136  PRO136     -0.2718
     41  CB        33.3780   30.6060   20.1320 C.3   136  PRO136      0.0282
     42  CG        32.3420   31.1560   21.0830 C.3   136  PRO136      0.0208
     43  CD        31.3880   30.0010   21.2320 C.3   136  PRO136      0.0893
     44  N         33.9890   28.8790   17.4430 N.am  137  ALA137     -0.1980
     45  CA        34.7670   27.8300   16.8180 C.3   137  ALA137      0.1597
     46  C         34.0240   26.5310   16.5910 C.2   137  ALA137      0.2287
     47  O         34.4360   25.4840   17.0930 O.2   137  ALA137     -0.2864
     48  CB        36.0140   27.5610   17.6480 C.3   137  ALA137      0.0319
     49  N         34.7160   25.6880   11.8310 N.3   141  ASN141     -0.1240
     50  CA        35.5210   24.4950   11.5900 C.3   141  ASN141      0.1653
     51  C         34.9570   23.6500   10.4450 C.2   141  ASN141      0.2266
     52  O         35.7040   22.9930    9.7110 O.2   141  ASN141     -0.2867
     53  CB        35.6250   23.6340   12.8550 C.3   141  ASN141      0.1155
     54  CG        36.6750   24.1410   13.8330 C.2   141  ASN141      0.2627
     55  OD1       37.7600   24.5980   13.4330 O.2   141  ASN141     -0.2716
     56  ND2       36.3730   24.0390   15.1230 N.am  141  ASN141     -0.0877
     57  N         37.9150   22.8610    8.1540 N.3   145  ASN145     -0.1240
     58  CA        38.5850   21.6670    8.6730 C.3   145  ASN145      0.1653
     59  C         37.8900   20.3220    8.5250 C.2   145  ASN145      0.2266
     60  O         37.9940   19.4660    9.4150 O.2   145  ASN145     -0.2867
     61  CB        38.9420   21.8620   10.1530 C.3   145  ASN145      0.1155
     62  CG        40.0230   22.9040   10.3650 C.2   145  ASN145      0.2627
     63  OD1       41.1340   22.7850    9.8430 O.2   145  ASN145     -0.2716
     64  ND2       39.7040   23.9310   11.1430 N.am  145  ASN145     -0.0877
     65  N         36.7870   34.7810   12.1170 N.3   182  HIS182     -0.1241
     66  CA        37.3430   36.1190   11.9620 C.3   182  HIS182      0.1621
     67  C         38.0680   36.2890   10.6240 C.2   182  HIS182      0.2264
     68  O         38.1680   35.3450    9.8360 O.2   182  HIS182     -0.2867
     69  CB        38.2980   36.4090   13.1210 C.3   182  HIS182      0.0745
     70  CG        39.4190   35.4300   13.2240 C.ar  182  HIS182      0.0817
     71  ND1       40.5590   35.5220   12.4520 N.ar  182  HIS182     -0.2268
     72  CD2       39.5610   34.3090   13.9720 C.ar  182  HIS182      0.1154
     73  CE1       41.3550   34.5020   12.7230 C.ar  182  HIS182      0.1986
     74  NE2       40.7730   33.7520   13.6410 N.ar  182  HIS182     -0.2212
     75  N         40.5200   33.7530    9.4610 N.3   185  TRP185     -0.1241
     76  CA        39.9430   32.4180    9.3140 C.3   185  TRP185      0.1605
     77  C         39.1090   32.2780    8.0180 C.2   185  TRP185      0.2264
     78  O         39.4950   31.5480    7.0980 O.2   185  TRP185     -0.2867
     79  CB        39.0600   32.0900   10.5360 C.3   185  TRP185      0.0550
     80  CG        38.8490   30.6070   10.7860 C.ar  185  TRP185      0.0003
     81  CD1       38.9320   29.5990    9.8660 C.ar  185  TRP185      0.0946
     82  CD2       38.4590   29.9840   12.0250 C.ar  185  TRP185      0.0152
     83  NE1       38.6190   28.3920   10.4500 N.ar  185  TRP185     -0.2442
     84  CE2       38.3210   28.5990   11.7730 C.ar  185  TRP185      0.0810
     85  CE3       38.2080   30.4630   13.3210 C.ar  185  TRP185      0.0012
     86  CZ2       37.9410   27.6830   12.7700 C.ar  185  TRP185      0.0191
     87  CZ3       37.8290   29.5510   14.3160 C.ar  185  TRP185      0.0001
     88  CH2       37.7000   28.1760   14.0290 C.ar  185  TRP185      0.0015
     89  N         35.8990   36.4300   18.0720 N.3   219  VAL219     -0.1231
     90  CA        35.7760   35.8870   19.4270 C.3   219  VAL219      0.1692
     91  C         37.0220   35.0940   19.8620 C.2   219  VAL219      0.2592
     92  O         37.3690   34.0780   19.2690 O.2   219  VAL219     -0.2718
     93  CB        34.5320   34.9820   19.5530 C.3   219  VAL219      0.0266
     94  CG1       34.4920   34.3240   20.9190 C.3   219  VAL219      0.0020
     95  CG2       33.2860   35.8030   19.3450 C.3   219  VAL219      0.0020
     96  N         37.6670   35.5720   20.9210 N.am  220  ALA220     -0.1966
     97  CA        38.8910   34.9870   21.4730 C.3   220  ALA220      0.1728
     98  C         40.1030   35.2040   20.5640 C.2   220  ALA220      0.2616
     99  O         41.1380   34.5860   20.7590 O.2   220  ALA220     -0.2715
    100  CB        38.7140   33.4900   21.7690 C.3   220  ALA220      0.0334
    101  N         39.9820   36.0660   19.5660 N.am  221  ASN221     -0.1972
    102  CA        41.1350   36.3140   18.7100 C.3   221  ASN221      0.1688
    103  C         41.6150   37.7620   18.8280 C.2   221  ASN221      0.2292
    104  O         41.1260   38.5060   19.6810 O.2   221  ASN221     -0.2864
    105  CB        40.8680   35.9530   17.2480 C.3   221  ASN221      0.1181
    106  CG        42.1500   35.5210   16.5280 C.2   221  ASN221      0.2629
    107  OD1       42.4840   34.3330   16.4810 O.2   221  ASN221     -0.2716
    108  ND2       42.8850   36.4900   15.9960 N.am  221  ASN221     -0.0877
    109  N         48.0980   32.3700   11.9470 N.3   281  GLY281     -0.1225
    110  CA        47.3850   31.2050   12.4320 C.3   281  GLY281      0.1811
    111  C         47.6590   30.8130   13.8680 C.2   281  GLY281      0.2280
    112  O         47.1330   29.8100   14.3420 O.2   281  GLY281     -0.2866
    113  N         47.0490   31.1360   17.6090 N.3   283  TRP283     -0.1241
    114  CA        45.9800   31.6410   18.4650 C.3   283  TRP283      0.1605
    115  C         46.1830   31.5720   19.9630 C.2   283  TRP283      0.2264
    116  O         45.4420   32.2200   20.6970 O.2   283  TRP283     -0.2867
    117  CB        44.6850   30.8970   18.1630 C.3   283  TRP283      0.0550
    118  CG        44.8440   29.3960   18.2190 C.ar  283  TRP283      0.0003
    119  CD1       45.1510   28.5640   17.1750 C.ar  283  TRP283      0.0946
    120  CD2       44.7490   28.5570   19.3800 C.ar  283  TRP283      0.0152
    121  NE1       45.2510   27.2660   17.6130 N.ar  283  TRP283     -0.2442
    122  CE2       45.0100   27.2330   18.9620 C.ar  283  TRP283      0.0810
    123  CE3       44.4740   28.7940   20.7300 C.ar  283  TRP283      0.0012
    124  CZ2       45.0020   26.1500   19.8470 C.ar  283  TRP283      0.0191
    125  CZ3       44.4690   27.7120   21.6120 C.ar  283  TRP283      0.0001
    126  CH2       44.7300   26.4110   21.1650 C.ar  283  TRP283      0.0015
    127  N         44.2620   30.4770   27.4240 N.3   317  ASP317     -0.1239
    128  CA        43.6880   29.8310   26.2400 C.3   317  ASP317      0.1674
    129  C         44.1110   28.3580   26.1650 C.2   317  ASP317      0.2266
    130  O         43.5940   27.6000   25.3530 O.2   317  ASP317     -0.2867
    131  CB        44.1410   30.5130   24.9380 C.3   317  ASP317      0.1410
    132  CG        43.7060   31.9660   24.8370 C.2   317  ASP317      0.3668
    133  OD1       42.5480   32.2930   25.1690 O.co2 317  ASP317     -0.2456
    134  OD2       44.5380   32.7780   24.3970 O.co2 317  ASP317     -0.2456
@<TRIPOS>BOND
     1    78    77    2
     2    77    76    1
     3    57    58    1
     4    59    58    1
     5    59    60    2
     6    58    61    1
     7    76    75    1
     8    76    79    1
     9    52    51    2
    10    68    67    2
    11    63    62    2
    12    81    83   ar
    13    81    80   ar
    14    61    62    1
    15    62    64   am
    16    51    50    1
    17    83    84   ar
    18    79    80    1
    19    67    66    1
    20    80    82   ar
    21    50    49    1
    22    50    53    1
    23    84    82   ar
    24    84    86   ar
    25   109   110    1
    26    66    65    1
    27    66    69    1
    28    82    85   ar
    29   110   111    1
    30    71    73   ar
    31    71    70   ar
    32    73    74   ar
    33    86    88   ar
    34    53    54    1
    35    69    70    1
    36    70    72   ar
    37    85    87   ar
    38    55    54    2
    39    74    72   ar
    40    54    56   am
    41   111   112    2
    42    88    87   ar
    43    25    22    1
    44    22    21    1
    45    22    23    1
    46    24    23    2
    47   108   106   am
    48    23    26   am
    49   107   106    2
    50   106   105    1
    51    46    45    1
    52    46    47    2
    53    45    44    1
    54    45    48    1
    55   119   121   ar
    56   119   118   ar
    57   105   102    1
    58    26    27    1
    59    44    39   am
    60   113   114    1
    61   121   122   ar
    62    89    90    1
    63   117   118    1
    64   117   114    1
    65   118   120   ar
    66    27    30    1
    67    27    28    1
    68   114   115    1
    69    39    40    2
    70    39    38    1
    71    15    16    2
    72    15    14    1
    73   102   103    1
    74   102   101    1
    75   103   104    2
    76   122   120   ar
    77   122   124   ar
    78    38    37    1
    79    38    41    1
    80    92    91    2
    81    19    18   ar
    82    95    93    1
    83   120   123   ar
    84    90    93    1
    85    90    91    1
    86    14    13    1
    87    14    17    1
    88    28    29    2
    89    93    94    1
    90   101    98   am
    91   124   126   ar
    92    91    96   am
    93    37    43    1
    94   115   116    2
    95    41    42    1
    96    18    17    1
    97    18    20   ar
    98    98    99    2
    99    98    97    1
   100   123   125   ar
   101    96    97    1
   102    42    43    1
   103   126   125   ar
   104    97   100    1
   105     9     7   ar
   106     9    11   ar
   107     7     6   ar
   108    12    11    1
   109    11    10   ar
   110    31    32    1
   111    35    36    1
   112    35    32    1
   113   134   132   ar
   114     6     5    1
   115     6     8   ar
   116     2     5    1
   117     2     1    1
   118     2     3    1
   119    34    33    2
   120    33    32    1
   121   132   131    1
   122   132   133   ar
   123   131   128    1
   124    10     8   ar
   125     3     4    2
   126   130   129    2
   127   129   128    1
   128   128   127    1
