@<TRIPOS>MOLECULE
tmp/1hh6B00.pdb
 123 121 0 0 0
SMALL
GASTEIGER

@<TRIPOS>ATOM
      1  N          7.2770   47.4160  152.6300 N.3    31  ASP31      -0.1225
      2  CA         5.8880   47.2300  153.0190 C.3    31  ASP31       0.1805
      3  C          4.8720   47.9380  152.1170 C.2    31  ASP31       0.2598
      4  O          3.6830   47.6240  152.1570 O.2    31  ASP31      -0.2718
      5  CB         5.6800   47.6630  154.4680 C.3    31  ASP31       0.1424
      6  CG         6.2410   46.6620  155.4530 C.2    31  ASP31       0.3668
      7  OD1        6.0330   45.4510  155.2330 O.co2  31  ASP31      -0.2456
      8  OD2        6.8800   47.0760  156.4450 O.co2  31  ASP31      -0.2456
      9  N          5.3330   48.8840  151.3020 N.am   32  TYR32      -0.1962
     10  CA         4.4290   49.6100  150.4150 C.3    32  TYR32       0.1771
     11  C          4.8530   49.5620  148.9560 C.2    32  TYR32       0.2619
     12  O          6.0310   49.4320  148.6410 O.2    32  TYR32      -0.2715
     13  CB         4.3170   51.0800  150.8390 C.3    32  TYR32       0.0574
     14  CG         3.8000   51.2820  152.2410 C.ar   32  TYR32      -0.0198
     15  CD1        4.6240   51.0690  153.3420 C.ar   32  TYR32      -0.0009
     16  CD2        2.4790   51.6560  152.4680 C.ar   32  TYR32      -0.0009
     17  CE1        4.1460   51.2190  154.6370 C.ar   32  TYR32       0.0417
     18  CE2        1.9900   51.8090  153.7590 C.ar   32  TYR32       0.0417
     19  CZ         2.8280   51.5870  154.8390 C.ar   32  TYR32       0.1957
     20  OH         2.3500   51.7190  156.1210 O.3    32  TYR32      -0.2866
     21  N          3.8770   49.6640  148.0650 N.am   33  GLU33      -0.1977
     22  CA         4.1720   49.6740  146.6440 C.3    33  GLU33       0.1602
     23  C          4.6110   51.1010  146.3380 C.2    33  GLU33       0.2287
     24  O          4.2210   52.0500  147.0290 O.2    33  GLU33      -0.2864
     25  CB         2.9160   49.3540  145.8090 C.3    33  GLU33       0.0415
     26  CG         2.0090   48.2480  146.3780 C.3    33  GLU33       0.1163
     27  CD         0.7450   48.0030  145.5440 C.2    33  GLU33       0.3649
     28  OE1        0.2950   48.9270  144.8290 O.co2  33  GLU33      -0.2457
     29  OE2        0.1840   46.8850  145.6210 O.co2  33  GLU33      -0.2457
     30  N          4.7670   53.7300  143.1210 N.3    35  HIS35      -0.1241
     31  CA         4.2560   53.9090  141.7760 C.3    35  HIS35       0.1621
     32  C          4.8340   55.1360  141.0920 C.2    35  HIS35       0.2264
     33  O          5.3250   56.0650  141.7300 O.2    35  HIS35      -0.2867
     34  CB         2.7260   54.0120  141.8140 C.3    35  HIS35       0.0745
     35  CG         2.0510   52.7470  142.2490 C.ar   35  HIS35       0.0817
     36  ND1        1.3220   51.9590  141.3860 N.ar   35  HIS35      -0.2268
     37  CD2        2.0250   52.1160  143.4470 C.ar   35  HIS35       0.1154
     38  CE1        0.8750   50.8980  142.0350 C.ar   35  HIS35       0.1986
     39  NE2        1.2880   50.9700  143.2850 N.ar   35  HIS35      -0.2212
     40  N          3.5440   50.1890  138.9730 N.3    50  GLY50      -0.1210
     41  CA         3.9900   50.1110  140.3470 C.3    50  GLY50       0.1956
     42  C          4.8580   48.8990  140.6230 C.2    50  GLY50       0.2612
     43  O          4.8760   47.9350  139.8530 O.2    50  GLY50      -0.2717
     44  N          5.5780   48.9510  141.7410 N.am   51  ILE51      -0.1965
     45  CA         6.4680   47.8780  142.1460 C.3    51  ILE51       0.1727
     46  C          6.3500   47.7000  143.6620 C.2    51  ILE51       0.2616
     47  O          6.1760   48.6710  144.4000 O.2    51  ILE51      -0.2715
     48  CB         7.9410   48.2310  141.7650 C.3    51  ILE51       0.0290
     49  CG1        8.7410   46.9660  141.4340 C.3    51  ILE51       0.0022
     50  CG2        8.6170   48.9980  142.8930 C.3    51  ILE51       0.0023
     51  CD1        8.8940   45.9990  142.5650 C.3    51  ILE51       0.0001
     52  N          6.4080   46.4580  144.1240 N.am   52  HIS52      -0.1973
     53  CA         6.3610   46.1970  145.5550 C.3    52  HIS52       0.1656
     54  C          7.7800   45.7460  145.9000 C.2    52  HIS52       0.2291
     55  O          8.1780   44.6400  145.5670 O.2    52  HIS52      -0.2864
     56  CB         5.3530   45.0930  145.8870 C.3    52  HIS52       0.0771
     57  CG         5.1310   44.9110  147.3560 C.ar   52  HIS52       0.0820
     58  ND1        6.1480   44.5770  148.2250 N.ar   52  HIS52      -0.2267
     59  CD2        4.0240   45.0770  148.1190 C.ar   52  HIS52       0.1154
     60  CE1        5.6780   44.5520  149.4610 C.ar   52  HIS52       0.1986
     61  NE2        4.3920   44.8530  149.4240 N.ar   52  HIS52      -0.2212
     62  N          7.9140   42.0150  147.5220 N.3    55  SER55      -0.1217
     63  CA         7.7190   40.8490  146.6680 C.3    55  SER55       0.1889
     64  C          8.3040   41.0320  145.2720 C.2    55  SER55       0.2288
     65  O          8.4060   40.0670  144.5110 O.2    55  SER55      -0.2866
     66  CB         6.2320   40.5540  146.5210 C.3    55  SER55       0.2089
     67  OG         5.6340   41.4920  145.6420 O.3    55  SER55      -0.2183
     68  N          6.8960   42.4320  143.0210 N.3    57  GLY57      -0.1210
     69  CA         5.7910   42.4000  142.0810 C.3    57  GLY57       0.1956
     70  C          5.5880   43.7420  141.3950 C.2    57  GLY57       0.2613
     71  O          5.8180   44.8050  141.9890 O.2    57  GLY57      -0.2717
     72  N          5.1480   43.6930  140.1420 N.am   58  THR58      -0.1938
     73  CA         4.9230   44.9010  139.3680 C.3    58  THR58       0.2028
     74  C          3.6100   44.8550  138.6100 C.2    58  THR58       0.2642
     75  O          3.0240   43.7930  138.4120 O.2    58  THR58      -0.2714
     76  CB         6.0440   45.1270  138.3390 C.3    58  THR58       0.1808
     77  OG1        6.0650   44.0380  137.4110 O.3    58  THR58      -0.2208
     78  CG2        7.3890   45.2320  139.0280 C.3    58  THR58       0.0379
     79  N          3.1520   46.0300  138.2000 N.am   59  ALA59      -0.1977
     80  CA         1.9270   46.1790  137.4230 C.3    59  ALA59       0.1597
     81  C          2.2010   47.3890  136.5430 C.2    59  ALA59       0.2287
     82  O          2.6480   48.4210  137.0420 O.2    59  ALA59      -0.2864
     83  CB         0.7240   46.4380  138.3390 C.3    59  ALA59       0.0319
     84  N          3.5620   56.8580  146.7910 N.3    98  ARG98      -0.1231
     85  CA         3.2180   55.7270  147.6260 C.3    98  ARG98       0.1694
     86  C          1.6960   55.8080  147.7400 C.2    98  ARG98       0.2592
     87  O          1.0650   55.1090  148.5300 O.2    98  ARG98      -0.2718
     88  CB         3.9130   55.9080  148.9780 C.3    98  ARG98       0.0321
     89  CG         3.8910   54.7230  149.9210 C.3    98  ARG98       0.0489
     90  CD         3.4180   55.2100  151.2830 C.3    98  ARG98       0.2205
     91  NE         4.1800   54.6600  152.3890 N.pl3  98  ARG98      -0.0865
     92  CZ         3.8650   54.8450  153.6670 C.cat  98  ARG98       0.5346
     93  NH1        2.8010   55.5670  154.0020 N.pl3  98  ARG98       0.1354
     94  NH2        4.6190   54.3050  154.6150 N.pl3  98  ARG98       0.1354
     95  N          1.1330   56.6690  146.8920 N.am   99  LYS99      -0.1966
     96  CA        -0.3010   56.9510  146.8090 C.3    99  LYS99       0.1728
     97  C         -0.6890   58.0220  147.8180 C.2    99  LYS99       0.2616
     98  O         -1.6300   58.7890  147.5930 O.2    99  LYS99      -0.2715
     99  CB        -1.1280   55.6890  147.0110 C.3    99  LYS99       0.0311
    100  CG        -0.8770   54.6630  145.9420 C.3    99  LYS99       0.0038
    101  CD        -2.0740   53.7620  145.7890 C.3    99  LYS99       0.0206
    102  CE        -1.7440   52.5930  144.8900 C.3    99  LYS99       0.1093
    103  NZ        -0.9220   51.6070  145.6140 N.3    99  LYS99      -0.1314
    104  N          0.0150   58.0680  148.9420 N.am  100  ASP100     -0.1957
    105  CA        -0.2600   59.1240  149.8920 C.3   100  ASP100      0.1840
    106  C          0.8960   60.1130  149.7900 C.2   100  ASP100      0.2622
    107  O          0.6650   61.2950  149.5800 O.2   100  ASP100     -0.2715
    108  CB        -0.4690   58.5900  151.3150 C.3   100  ASP100      0.1450
    109  CG         0.6710   57.7440  151.8150 C.2   100  ASP100      0.3671
    110  OD1        1.5550   57.3520  151.0170 O.co2 100  ASP100     -0.2456
    111  OD2        0.6580   57.4650  153.0350 O.co2 100  ASP100     -0.2456
    112  N          2.1380   59.6400  149.8860 N.am  101  TYR101     -0.1974
    113  CA         3.2800   60.5470  149.7520 C.3   101  TYR101      0.1639
    114  C          3.6310   60.6670  148.2640 C.2   101  TYR101      0.2290
    115  O          3.4480   59.7160  147.5030 O.2   101  TYR101     -0.2864
    116  CB         4.5310   60.0310  150.4810 C.3   101  TYR101      0.0560
    117  CG         4.3570   59.5540  151.9060 C.ar  101  TYR101     -0.0198
    118  CD1        3.5380   60.2320  152.8050 C.ar  101  TYR101     -0.0009
    119  CD2        5.0540   58.4380  152.3660 C.ar  101  TYR101     -0.0009
    120  CE1        3.4170   59.8060  154.1250 C.ar  101  TYR101      0.0417
    121  CE2        4.9480   58.0070  153.6800 C.ar  101  TYR101      0.0417
    122  CZ         4.1300   58.6920  154.5560 C.ar  101  TYR101      0.1957
    123  OH         4.0470   58.2790  155.8710 O.3   101  TYR101     -0.2866
@<TRIPOS>BOND
     1    81    82    2
     2    81    80    1
     3    77    76    1
     4    80    79    1
     5    80    83    1
     6    79    74   am
     7    76    78    1
     8    76    73    1
     9    75    74    2
    10    74    73    1
    11    40    41    1
    12    73    72    1
    13    43    42    2
    14    72    70   am
    15    41    42    1
    16    42    44   am
    17    32    33    2
    18    32    31    1
    19    36    38   ar
    20    36    35   ar
    21    70    71    2
    22    70    69    1
    23    49    48    1
    24    49    51    1
    25    44    45    1
    26    48    45    1
    27    48    50    1
    28    31    34    1
    29    31    30    1
    30    34    35    1
    31    38    39   ar
    32    69    68    1
    33    45    46    1
    34    35    37   ar
    35    39    37   ar
    36    46    52   am
    37    46    47    2
    38    52    53    1
    39    65    64    2
    40    28    27   ar
    41   102   103    1
    42   102   101    1
    43    64    63    1
    44    27    29   ar
    45    27    26    1
    46    53    56    1
    47    53    54    1
    48    55    54    2
    49    67    66    1
    50   101   100    1
    51    25    26    1
    52    25    22    1
    53    56    57    1
    54   100    99    1
    55    23    22    1
    56    23    24    2
    57    66    63    1
    58    22    21    1
    59    63    62    1
    60    84    85    1
    61    96    95    1
    62    96    99    1
    63    96    97    1
    64    95    86   am
    65    57    59   ar
    66    57    58   ar
    67   115   114    2
    68    98    97    2
    69    85    86    1
    70    85    88    1
    71    86    87    2
    72    97   104   am
    73    21    11   am
    74    59    61   ar
    75    58    60   ar
    76   114   113    1
    77    12    11    2
    78   104   105    1
    79    11    10    1
    80    88    89    1
    81    61    60   ar
    82   107   106    2
    83   113   112    1
    84   113   116    1
    85   106   112   am
    86   106   105    1
    87   105   108    1
    88    89    90    1
    89    10    13    1
    90    10     9    1
    91   116   117    1
    92    13    14    1
    93   110   109   ar
    94    90    91    1
    95     9     3   am
    96   108   109    1
    97   109   111   ar
    98   117   119   ar
    99   117   118   ar
   100     3     4    2
   101     3     2    1
   102    14    16   ar
   103    14    15   ar
   104   119   121   ar
   105    91    92    2
   106    16    18   ar
   107     1     2    1
   108   118   120   ar
   109     2     5    1
   110    15    17   ar
   111    92    93    1
   112    92    94    1
   113   121   122   ar
   114    18    19   ar
   115   120   122   ar
   116     5     6    1
   117   122   123    1
   118    17    19   ar
   119    19    20    1
   120     7     6   ar
   121     6     8   ar
