@<TRIPOS>MOLECULE
tmp/1hh9A00.pdb
 100 99 0 0 0
SMALL
GASTEIGER

@<TRIPOS>ATOM
      1  N        -11.1230   52.8350  148.6930 N.3    32  PHE32      -0.1241
      2  CA        -9.6970   52.9830  148.4260 C.3    32  PHE32       0.1605
      3  C         -9.4880   54.1330  147.4440 C.2    32  PHE32       0.2264
      4  O         -9.2670   53.9410  146.2470 O.2    32  PHE32      -0.2867
      5  CB        -9.0960   51.6750  147.9000 C.3    32  PHE32       0.0534
      6  CG        -8.9380   50.6180  148.9610 C.ar   32  PHE32      -0.0203
      7  CD1       -8.1510   50.8530  150.0810 C.ar   32  PHE32      -0.0042
      8  CD2       -9.6010   49.3930  148.8600 C.ar   32  PHE32      -0.0042
      9  CE1       -8.0290   49.8810  151.0890 C.ar   32  PHE32      -0.0003
     10  CE2       -9.4810   48.4240  149.8610 C.ar   32  PHE32      -0.0003
     11  CZ        -8.6990   48.6690  150.9720 C.ar   32  PHE32      -0.0000
     12  N         -6.6030   59.8550  152.8930 N.3    49  TYR49      -0.1227
     13  CA        -6.3970   58.5620  152.2590 C.3    49  TYR49       0.1736
     14  C         -7.4890   57.6200  152.7460 C.2    49  TYR49       0.2595
     15  O         -8.0220   57.7880  153.8450 O.2    49  TYR49      -0.2718
     16  CB        -5.0220   57.9930  152.6070 C.3    49  TYR49       0.0548
     17  CG        -4.8500   57.6580  154.0640 C.ar   49  TYR49      -0.0200
     18  CD1       -5.2290   56.4040  154.5550 C.ar   49  TYR49      -0.0009
     19  CD2       -4.3170   58.5900  154.9600 C.ar   49  TYR49      -0.0009
     20  CE1       -5.0850   56.0860  155.9000 C.ar   49  TYR49       0.0417
     21  CE2       -4.1630   58.2800  156.3140 C.ar   49  TYR49       0.0417
     22  CZ        -4.5510   57.0240  156.7750 C.ar   49  TYR49       0.1957
     23  OH        -4.4100   56.6930  158.1040 O.3    49  TYR49      -0.2866
     24  N         -7.8120   56.6280  151.9260 N.am   50  ARG50      -0.1980
     25  CA        -8.8660   55.6740  152.2420 C.3    50  ARG50       0.1597
     26  C        -10.1920   56.3790  152.5370 C.2    50  ARG50       0.2287
     27  O        -10.8070   56.1670  153.5860 O.2    50  ARG50      -0.2864
     28  CB        -8.4770   54.7710  153.4200 C.3    50  ARG50       0.0334
     29  CG        -9.4710   53.6370  153.6090 C.3    50  ARG50       0.0492
     30  CD        -8.9470   52.5000  154.4490 C.3    50  ARG50       0.2205
     31  NE        -9.5720   51.2350  154.0490 N.pl3  50  ARG50      -0.0865
     32  CZ        -9.4150   50.0810  154.6970 C.cat  50  ARG50       0.5346
     33  NH1       -8.6520   50.0290  155.7860 N.pl3  50  ARG50       0.1354
     34  NH2      -10.0090   48.9780  154.2550 N.pl3  50  ARG50       0.1354
     35  N         -9.7560   59.0660  156.0700 N.3    53  ARG53      -0.1231
     36  CA        -8.7160   59.1920  157.0870 C.3    53  ARG53       0.1694
     37  C         -7.9070   60.4520  156.7770 C.2    53  ARG53       0.2592
     38  O         -7.3930   60.6110  155.6690 O.2    53  ARG53      -0.2718
     39  CB        -7.8060   57.9580  157.0940 C.3    53  ARG53       0.0321
     40  CG        -8.1300   56.9060  158.1680 C.3    53  ARG53       0.0489
     41  CD        -9.3980   56.0900  157.8900 C.3    53  ARG53       0.2205
     42  NE        -9.3510   54.7870  158.5690 N.pl3  53  ARG53      -0.0865
     43  CZ       -10.0960   53.7290  158.2380 C.cat  53  ARG53       0.5346
     44  NH1      -10.9660   53.8000  157.2340 N.pl3  53  ARG53       0.1354
     45  NH2       -9.9540   52.5830  158.8920 N.pl3  53  ARG53       0.1354
     46  N         -7.8040   61.3520  157.7530 N.am   54  LEU54      -0.1966
     47  CA        -7.0750   62.6050  157.5740 C.3    54  LEU54       0.1728
     48  C         -5.5690   62.3580  157.6100 C.2    54  LEU54       0.2616
     49  O         -5.0880   61.6420  158.4790 O.2    54  LEU54      -0.2715
     50  CB        -7.4600   63.5810  158.6880 C.3    54  LEU54       0.0311
     51  CG        -7.5810   65.0700  158.3600 C.3    54  LEU54       0.0022
     52  CD1       -7.4070   65.8810  159.6370 C.3    54  LEU54       0.0001
     53  CD2       -6.5290   65.4680  157.3460 C.3    54  LEU54       0.0001
     54  N         -4.8290   62.9450  156.6710 N.am   55  MET55      -0.1963
     55  CA        -3.3760   62.7840  156.6290 C.3    55  MET55       0.1736
     56  C         -2.7290   63.5000  157.8010 C.2    55  MET55       0.2616
     57  O         -3.1400   64.5930  158.1780 O.2    55  MET55      -0.2715
     58  CB        -2.8090   63.3450  155.3240 C.3    55  MET55       0.0427
     59  CG        -2.5050   62.2970  154.2650 C.3    55  MET55       0.0599
     60  SD        -1.2170   61.1470  154.8080 S.3    55  MET55      -0.1393
     61  CE         0.2420   61.8750  154.0570 C.3    55  MET55       0.0692
     62  N         -1.7120   62.8820  158.3820 N.am   56  ILE56      -0.1977
     63  CA        -1.0170   63.4750  159.5220 C.3    56  ILE56       0.1596
     64  C         -0.4340   64.8320  159.1360 C.2    56  ILE56       0.2287
     65  O          0.3550   64.9390  158.1920 O.2    56  ILE56      -0.2864
     66  CB         0.1250   62.5470  160.0150 C.3    56  ILE56       0.0276
     67  CG1        0.7120   63.0820  161.3210 C.3    56  ILE56       0.0022
     68  CG2        1.2170   62.4330  158.9370 C.3    56  ILE56       0.0022
     69  CD1        1.6960   62.1250  161.9820 C.3    56  ILE56       0.0001
     70  N         -7.3610   53.6080  144.0120 N.3    91  TYR91      -0.1227
     71  CA        -6.3250   52.5870  144.0000 C.3    91  TYR91       0.1736
     72  C         -6.9010   51.2690  144.4890 C.2    91  TYR91       0.2595
     73  O         -6.2700   50.5230  145.2350 O.2    91  TYR91      -0.2718
     74  CB        -5.1220   53.0030  144.8650 C.3    91  TYR91       0.0548
     75  CG        -5.4580   53.2990  146.3110 C.ar   91  TYR91      -0.0200
     76  CD1       -6.1480   54.4730  146.6700 C.ar   91  TYR91      -0.0009
     77  CD2       -5.0990   52.4090  147.3230 C.ar   91  TYR91      -0.0009
     78  CE1       -6.4650   54.7430  148.0010 C.ar   91  TYR91       0.0417
     79  CE2       -5.4130   52.6690  148.6540 C.ar   91  TYR91       0.0417
     80  CZ        -6.0930   53.8350  148.9880 C.ar   91  TYR91       0.1957
     81  OH        -6.3890   54.0890  150.3100 O.3    91  TYR91      -0.2866
     82  N         -8.1190   50.9890  144.0580 N.am   92  ASP92      -0.1974
     83  CA        -8.7780   49.7600  144.4440 C.3    92  ASP92       0.1709
     84  C         -8.4050   48.6720  143.4560 C.2    92  ASP92       0.2293
     85  O         -8.4030   47.4940  143.7870 O.2    92  ASP92      -0.2864
     86  CB       -10.2900   49.9500  144.4360 C.3    92  ASP92       0.1436
     87  CG       -11.0330   48.6550  144.6250 C.2    92  ASP92       0.3671
     88  OD1      -10.7500   47.9620  145.6230 O.co2  92  ASP92      -0.2456
     89  OD2      -11.8950   48.3320  143.7780 O.co2  92  ASP92      -0.2456
     90  N         -5.8480   48.1170  139.6360 N.3    94  PHE94      -0.1241
     91  CA        -4.9810   48.6750  138.6010 C.3    94  PHE94       0.1605
     92  C         -5.7090   48.6040  137.2670 C.2    94  PHE94       0.2264
     93  O         -6.5260   47.7210  137.0500 O.2    94  PHE94      -0.2867
     94  CB        -3.6620   47.8960  138.5150 C.3    94  PHE94       0.0534
     95  CG        -2.9600   47.7570  139.8300 C.ar   94  PHE94      -0.0203
     96  CD1       -2.7740   48.8650  140.6570 C.ar   94  PHE94      -0.0042
     97  CD2       -2.4780   46.5300  140.2450 C.ar   94  PHE94      -0.0042
     98  CE1       -2.1150   48.7470  141.8850 C.ar   94  PHE94      -0.0003
     99  CE2       -1.8200   46.4010  141.4670 C.ar   94  PHE94      -0.0003
    100  CZ        -1.6380   47.5130  142.2900 C.ar   94  PHE94      -0.0000
@<TRIPOS>BOND
     1    93    92    2
     2    92    91    1
     3    94    91    1
     4    94    95    1
     5    91    90    1
     6    95    97   ar
     7    95    96   ar
     8    97    99   ar
     9    96    98   ar
    10    99   100   ar
    11    98   100   ar
    12    84    85    2
    13    84    83    1
    14    89    87   ar
    15    71    70    1
    16    71    72    1
    17    71    74    1
    18    82    83    1
    19    82    72   am
    20    86    83    1
    21    86    87    1
    22    72    73    2
    23    87    88   ar
    24    74    75    1
    25     4     3    2
    26    75    76   ar
    27    75    77   ar
    28    76    78   ar
    29    77    79   ar
    30     3     2    1
    31     5     2    1
    32     5     6    1
    33    78    80   ar
    34     2     1    1
    35    79    80   ar
    36     8     6   ar
    37     8    10   ar
    38     6     7   ar
    39    80    81    1
    40    10    11   ar
    41     7     9   ar
    42    11     9   ar
    43    24    25    1
    44    24    14   am
    45    25    26    1
    46    25    28    1
    47    13    16    1
    48    13    14    1
    49    13    12    1
    50    26    27    2
    51    16    17    1
    52    14    15    2
    53    28    29    1
    54    29    30    1
    55    31    30    1
    56    31    32    2
    57    61    60    1
    58    17    18   ar
    59    17    19   ar
    60    34    32    1
    61    59    60    1
    62    59    58    1
    63    18    20   ar
    64    32    33    1
    65    19    21   ar
    66    58    55    1
    67    38    37    2
    68    20    22   ar
    69    35    36    1
    70    21    22   ar
    71    55    54    1
    72    55    56    1
    73    54    48   am
    74    22    23    1
    75    37    36    1
    76    37    46   am
    77    36    39    1
    78    39    40    1
    79    44    43    1
    80    53    51    1
    81    47    48    1
    82    47    46    1
    83    47    50    1
    84    48    49    2
    85    56    57    2
    86    56    62   am
    87    41    40    1
    88    41    42    1
    89    65    64    2
    90    43    42    2
    91    43    45    1
    92    51    50    1
    93    51    52    1
    94    62    63    1
    95    68    66    1
    96    64    63    1
    97    63    66    1
    98    66    67    1
    99    67    69    1
