@<TRIPOS>MOLECULE
tmp/1hh9B00.pdb
 123 121 0 0 0
SMALL
GASTEIGER

@<TRIPOS>ATOM
      1  N          7.0510   47.2810  153.2730 N.3    31  ASP31      -0.1225
      2  CA         5.6760   47.0320  153.6850 C.3    31  ASP31       0.1805
      3  C          4.6670   47.6360  152.7010 C.2    31  ASP31       0.2598
      4  O          3.5190   47.1920  152.6240 O.2    31  ASP31      -0.2718
      5  CB         5.4260   47.5760  155.0900 C.3    31  ASP31       0.1424
      6  CG         5.8510   46.6060  156.1720 C.2    31  ASP31       0.3668
      7  OD1        6.4110   45.5470  155.8280 O.co2  31  ASP31      -0.2456
      8  OD2        5.6230   46.8900  157.3660 O.co2  31  ASP31      -0.2456
      9  N          5.0990   48.6380  151.9400 N.am   32  TYR32      -0.1962
     10  CA         4.2210   49.3200  150.9930 C.3    32  TYR32       0.1771
     11  C          4.7320   49.2170  149.5630 C.2    32  TYR32       0.2619
     12  O          5.8840   48.8780  149.3150 O.2    32  TYR32      -0.2715
     13  CB         4.0680   50.8110  151.3360 C.3    32  TYR32       0.0574
     14  CG         3.6600   51.0890  152.7560 C.ar   32  TYR32      -0.0198
     15  CD1        4.5980   51.0950  153.7810 C.ar   32  TYR32      -0.0009
     16  CD2        2.3310   51.3140  153.0830 C.ar   32  TYR32      -0.0009
     17  CE1        4.2210   51.3180  155.1010 C.ar   32  TYR32       0.0417
     18  CE2        1.9430   51.5370  154.3990 C.ar   32  TYR32       0.0417
     19  CZ         2.8930   51.5360  155.4020 C.ar   32  TYR32       0.1957
     20  OH         2.5130   51.7550  156.7040 O.3    32  TYR32      -0.2866
     21  N          3.8610   49.5230  148.6180 N.am   33  GLU33      -0.1977
     22  CA         4.2480   49.4980  147.2250 C.3    33  GLU33       0.1602
     23  C          4.7240   50.9050  146.9060 C.2    33  GLU33       0.2287
     24  O          4.4750   51.8470  147.6620 O.2    33  GLU33      -0.2864
     25  CB         3.0460   49.1710  146.3300 C.3    33  GLU33       0.0415
     26  CG         1.9520   48.3780  147.0270 C.3    33  GLU33       0.1163
     27  CD         0.9030   47.8480  146.0740 C.2    33  GLU33       0.3649
     28  OE1        0.4420   48.6170  145.2040 O.co2  33  GLU33      -0.2457
     29  OE2        0.5350   46.6620  146.2080 O.co2  33  GLU33      -0.2457
     30  N          4.6770   53.4240  143.5570 N.3    35  HIS35      -0.1241
     31  CA         4.1750   53.5750  142.2040 C.3    35  HIS35       0.1621
     32  C          4.7630   54.8110  141.5390 C.2    35  HIS35       0.2264
     33  O          5.2330   55.7400  142.2040 O.2    35  HIS35      -0.2867
     34  CB         2.6490   53.6630  142.2130 C.3    35  HIS35       0.0745
     35  CG         1.9710   52.3980  142.6460 C.ar   35  HIS35       0.0817
     36  ND1        1.2670   51.5950  141.7740 N.ar   35  HIS35      -0.2268
     37  CD2        1.8730   51.8090  143.8640 C.ar   35  HIS35       0.1154
     38  CE1        0.7610   50.5690  142.4380 C.ar   35  HIS35       0.1986
     39  NE2        1.1130   50.6750  143.7080 N.ar   35  HIS35      -0.2212
     40  N          3.4830   49.8690  139.4570 N.3    50  GLY50      -0.1210
     41  CA         3.8230   49.7770  140.8650 C.3    50  GLY50       0.1956
     42  C          4.8020   48.6540  141.1490 C.2    50  GLY50       0.2612
     43  O          5.0290   47.7820  140.3080 O.2    50  GLY50      -0.2717
     44  N          5.3840   48.6730  142.3430 N.am   51  ILE51      -0.1965
     45  CA         6.3510   47.6620  142.7400 C.3    51  ILE51       0.1727
     46  C          6.2820   47.4740  144.2600 C.2    51  ILE51       0.2616
     47  O          6.1880   48.4430  145.0180 O.2    51  ILE51      -0.2715
     48  CB         7.7840   48.0970  142.2960 C.3    51  ILE51       0.0290
     49  CG1        8.6580   46.8700  142.0270 C.3    51  ILE51       0.0022
     50  CG2        8.4280   48.9940  143.3490 C.3    51  ILE51       0.0023
     51  CD1        9.0000   46.0790  143.2360 C.3    51  ILE51       0.0001
     52  N          6.2880   46.2240  144.7070 N.am   52  HIS52      -0.1973
     53  CA         6.2620   45.9410  146.1390 C.3    52  HIS52       0.1656
     54  C          7.6890   45.5430  146.4890 C.2    52  HIS52       0.2291
     55  O          8.1340   44.4740  146.1030 O.2    52  HIS52      -0.2864
     56  CB         5.3100   44.7790  146.4430 C.3    52  HIS52       0.0771
     57  CG         4.9680   44.6470  147.8940 C.ar   52  HIS52       0.0820
     58  ND1        5.9240   44.4840  148.8720 N.ar   52  HIS52      -0.2267
     59  CD2        3.7800   44.7210  148.5400 C.ar   52  HIS52       0.1154
     60  CE1        5.3420   44.4730  150.0580 C.ar   52  HIS52       0.1986
     61  NE2        4.0410   44.6150  149.8850 N.ar   52  HIS52      -0.2212
     62  N          7.9280   41.7940  148.1090 N.3    55  SER55      -0.1217
     63  CA         7.8260   40.6270  147.2330 C.3    55  SER55       0.1889
     64  C          8.4330   40.7880  145.8360 C.2    55  SER55       0.2288
     65  O          8.5200   39.8140  145.0840 O.2    55  SER55      -0.2866
     66  CB         6.3610   40.2400  147.0700 C.3    55  SER55       0.2089
     67  OG         5.7000   41.1690  146.2310 O.3    55  SER55      -0.2183
     68  N          7.0720   42.2640  143.5690 N.3    57  GLY57      -0.1210
     69  CA         5.9560   42.2460  142.6440 C.3    57  GLY57       0.1956
     70  C          5.7710   43.5740  141.9280 C.2    57  GLY57       0.2613
     71  O          6.0080   44.6510  142.5000 O.2    57  GLY57      -0.2717
     72  N          5.3400   43.4950  140.6710 N.am   58  THR58      -0.1938
     73  CA         5.1220   44.6800  139.8570 C.3    58  THR58       0.2028
     74  C          3.8290   44.5980  139.0560 C.2    58  THR58       0.2642
     75  O          3.3110   43.5140  138.7910 O.2    58  THR58      -0.2714
     76  CB         6.2690   44.8830  138.8620 C.3    58  THR58       0.1808
     77  OG1        6.3530   43.7500  137.9920 O.3    58  THR58      -0.2208
     78  CG2        7.5770   45.0510  139.5930 C.3    58  THR58       0.0379
     79  N          3.3160   45.7620  138.6780 N.am   59  ALA59      -0.1977
     80  CA         2.1000   45.8750  137.8820 C.3    59  ALA59       0.1597
     81  C          2.3400   47.0900  136.9940 C.2    59  ALA59       0.2287
     82  O          2.7450   48.1410  137.4940 O.2    59  ALA59      -0.2864
     83  CB         0.8930   46.1100  138.7890 C.3    59  ALA59       0.0319
     84  N          3.6430   56.7430  147.4300 N.3    98  ARG98      -0.1231
     85  CA         3.2900   55.6180  148.2730 C.3    98  ARG98       0.1694
     86  C          1.7560   55.5770  148.3440 C.2    98  ARG98       0.2592
     87  O          1.1700   54.8950  149.1910 O.2    98  ARG98      -0.2718
     88  CB         3.8930   55.8330  149.6580 C.3    98  ARG98       0.0321
     89  CG         4.0280   54.5770  150.4960 C.3    98  ARG98       0.0489
     90  CD         3.2520   54.7460  151.7820 C.3    98  ARG98       0.2205
     91  NE         4.0940   54.6350  152.9640 N.pl3  98  ARG98      -0.0865
     92  CZ         3.6630   54.8700  154.2000 C.cat  98  ARG98       0.5346
     93  NH1        2.4040   55.2320  154.4150 N.pl3  98  ARG98       0.1354
     94  NH2        4.4890   54.7370  155.2270 N.pl3  98  ARG98       0.1354
     95  N          1.1310   56.2940  147.4090 N.am   99  LYS99      -0.1966
     96  CA        -0.3230   56.4480  147.3100 C.3    99  LYS99       0.1728
     97  C         -0.7460   57.5630  148.2630 C.2    99  LYS99       0.2616
     98  O         -1.7190   58.2890  148.0050 O.2    99  LYS99      -0.2715
     99  CB        -1.0690   55.1470  147.6380 C.3    99  LYS99       0.0311
    100  CG        -1.0170   54.1470  146.5110 C.3    99  LYS99       0.0038
    101  CD        -1.5700   52.8000  146.9110 C.3    99  LYS99       0.0206
    102  CE        -1.1430   51.7230  145.9030 C.3    99  LYS99       0.1093
    103  NZ        -1.4130   50.3420  146.4160 N.3    99  LYS99      -0.1314
    104  N         -0.0170   57.7060  149.3660 N.am  100  ASP100     -0.1957
    105  CA        -0.3230   58.7650  150.3070 C.3   100  ASP100      0.1840
    106  C          0.8030   59.7960  150.2950 C.2   100  ASP100      0.2622
    107  O          0.5330   60.9950  150.2700 O.2   100  ASP100     -0.2715
    108  CB        -0.5820   58.1970  151.7050 C.3   100  ASP100      0.1450
    109  CG         0.6020   57.4640  152.2750 C.2   100  ASP100      0.3671
    110  OD1        1.5620   57.1660  151.5280 O.co2 100  ASP100     -0.2456
    111  OD2        0.5590   57.1780  153.4910 O.co2 100  ASP100     -0.2456
    112  N          2.0580   59.3510  150.2910 N.am  101  TYR101     -0.1974
    113  CA         3.1760   60.2950  150.2320 C.3   101  TYR101      0.1639
    114  C          3.5900   60.4200  148.7660 C.2   101  TYR101      0.2290
    115  O          3.5260   59.4400  148.0140 O.2   101  TYR101     -0.2864
    116  CB         4.4140   59.8120  151.0080 C.3   101  TYR101      0.0560
    117  CG         4.2240   59.3890  152.4530 C.ar  101  TYR101     -0.0198
    118  CD1        3.4120   60.1130  153.3330 C.ar  101  TYR101     -0.0009
    119  CD2        4.8940   58.2690  152.9480 C.ar  101  TYR101     -0.0009
    120  CE1        3.2720   59.7260  154.6690 C.ar  101  TYR101      0.0417
    121  CE2        4.7670   57.8760  154.2720 C.ar  101  TYR101      0.0417
    122  CZ         3.9580   58.6020  155.1280 C.ar  101  TYR101      0.1957
    123  OH         3.8540   58.1950  156.4440 O.3   101  TYR101     -0.2866
@<TRIPOS>BOND
     1    81    82    2
     2    81    80    1
     3    80    79    1
     4    80    83    1
     5    77    76    1
     6    79    74   am
     7    75    74    2
     8    76    78    1
     9    76    73    1
    10    74    73    1
    11    40    41    1
    12    73    72    1
    13    43    42    2
    14    72    70   am
    15    41    42    1
    16    42    44   am
    17    32    31    1
    18    32    33    2
    19    36    38   ar
    20    36    35   ar
    21    70    71    2
    22    70    69    1
    23    49    48    1
    24    49    51    1
    25    31    34    1
    26    31    30    1
    27    34    35    1
    28    48    45    1
    29    48    50    1
    30    44    45    1
    31    38    39   ar
    32    69    68    1
    33    35    37   ar
    34    45    46    1
    35    39    37   ar
    36    46    52   am
    37    46    47    2
    38    52    53    1
    39    65    64    2
    40    28    27   ar
    41    64    63    1
    42   102   103    1
    43   102   101    1
    44    27    29   ar
    45    27    26    1
    46    55    54    2
    47    53    56    1
    48    53    54    1
    49    67    66    1
    50    25    26    1
    51    25    22    1
    52    56    57    1
    53   100   101    1
    54   100    99    1
    55    23    22    1
    56    23    24    2
    57    66    63    1
    58    22    21    1
    59    63    62    1
    60    96    95    1
    61    96    99    1
    62    96    97    1
    63    95    86   am
    64    84    85    1
    65    57    59   ar
    66    57    58   ar
    67    98    97    2
    68   115   114    2
    69    97   104   am
    70    85    86    1
    71    85    88    1
    72    86    87    2
    73    59    61   ar
    74    21    11   am
    75   114   113    1
    76    58    60   ar
    77    12    11    2
    78   104   105    1
    79    11    10    1
    80    88    89    1
    81    61    60   ar
    82   113   112    1
    83   113   116    1
    84   107   106    2
    85   112   106   am
    86   106   105    1
    87   105   108    1
    88    89    90    1
    89    10    13    1
    90    10     9    1
    91   116   117    1
    92    13    14    1
    93   110   109   ar
    94   108   109    1
    95    90    91    1
    96     9     3   am
    97   109   111   ar
    98   117   119   ar
    99   117   118   ar
   100     4     3    2
   101     3     2    1
   102    14    16   ar
   103    14    15   ar
   104   119   121   ar
   105    91    92    2
   106    16    18   ar
   107     1     2    1
   108   118   120   ar
   109     2     5    1
   110    15    17   ar
   111    92    93    1
   112    92    94    1
   113   121   122   ar
   114    18    19   ar
   115   120   122   ar
   116     5     6    1
   117    17    19   ar
   118   122   123    1
   119    19    20    1
   120     7     6   ar
   121     6     8   ar
