@<TRIPOS>MOLECULE
tmp/1hi3A00.pdb
 172 166 0 0 0
SMALL
GASTEIGER

@<TRIPOS>ATOM
      1  N          7.8620   15.3850   12.4780 N.3     1  MET1       -0.1245
      2  CA         7.4420   15.4650   13.9030 C.3     1  MET1        0.1570
      3  C          7.7950   14.1650   14.6030 C.2     1  MET1        0.2261
      4  O          7.7790   13.0970   13.9950 O.2     1  MET1       -0.2867
      5  CB         5.9310   15.7140   14.0090 C.3     1  MET1        0.0387
      6  CG         5.0780   14.4820   13.7930 C.3     1  MET1        0.0595
      7  SD         4.7410   14.2460   12.0470 S.3     1  MET1       -0.1393
      8  CE         3.7800   12.7580   12.0940 C.3     1  MET1        0.0692
      9  N         15.5840   14.7130   20.0880 N.3     8  TRP8       -0.1241
     10  CA        15.8550   14.7740   18.6530 C.3     8  TRP8        0.1605
     11  C         16.8430   13.6980   18.2300 C.2     8  TRP8        0.2264
     12  O         16.6800   13.0780   17.1860 O.2     8  TRP8       -0.2867
     13  CB        16.3730   16.1660   18.2740 C.3     8  TRP8        0.0550
     14  CG        15.2810   17.1890   18.3560 C.ar    8  TRP8        0.0003
     15  CD1       15.1490   18.1860   19.2840 C.ar    8  TRP8        0.0946
     16  CD2       14.1110   17.2530   17.5300 C.ar    8  TRP8        0.0152
     17  NE1       13.9620   18.8630   19.0870 N.ar    8  TRP8       -0.2442
     18  CE2       13.3080   18.3070   18.0190 C.ar    8  TRP8        0.0810
     19  CE3       13.6620   16.5150   16.4260 C.ar    8  TRP8        0.0012
     20  CZ2       12.0840   18.6440   17.4410 C.ar    8  TRP8        0.0191
     21  CZ3       12.4450   16.8500   15.8490 C.ar    8  TRP8        0.0001
     22  CH2       11.6700   17.9050   16.3580 C.ar    8  TRP8        0.0015
     23  N         15.2540   10.3160   18.1070 N.3    11  TRP11      -0.1227
     24  CA        14.3900   10.2240   16.9310 C.3    11  TRP11       0.1737
     25  C         15.2620   10.0430   15.6890 C.2    11  TRP11       0.2595
     26  O         14.9200    9.2690   14.7960 O.2    11  TRP11      -0.2718
     27  CB        13.5390   11.4870   16.7810 C.3    11  TRP11       0.0564
     28  CG        12.4890   11.3860   15.6850 C.ar   11  TRP11       0.0003
     29  CD1       12.2870   12.2690   14.6560 C.ar   11  TRP11       0.0946
     30  CD2       11.4980   10.3550   15.5260 C.ar   11  TRP11       0.0152
     31  NE1       11.2350   11.8520   13.8750 N.ar   11  TRP11      -0.2442
     32  CE2       10.7330   10.6820   14.3830 C.ar   11  TRP11       0.0810
     33  CE3       11.1820    9.1870   16.2400 C.ar   11  TRP11       0.0012
     34  CZ2        9.6680    9.8830   13.9310 C.ar   11  TRP11       0.0191
     35  CZ3       10.1150    8.3910   15.7870 C.ar   11  TRP11       0.0001
     36  CH2        9.3750    8.7500   14.6430 C.ar   11  TRP11       0.0015
     37  N         16.3830   10.7650   15.6350 N.am   12  PHE12      -0.1976
     38  CA        17.3120   10.6450   14.5160 C.3    12  PHE12       0.1639
     39  C         17.7430    9.1830   14.4220 C.2    12  PHE12       0.2290
     40  O         17.7700    8.5910   13.3330 O.2    12  PHE12      -0.2864
     41  CB        18.5540   11.5200   14.7330 C.3    12  PHE12       0.0560
     42  CG        19.6170   11.3310   13.6800 C.ar   12  PHE12      -0.0200
     43  CD1       19.6140   12.1100   12.5220 C.ar   12  PHE12      -0.0042
     44  CD2       20.6050   10.3510   13.8270 C.ar   12  PHE12      -0.0042
     45  CE1       20.5680   11.9220   11.5240 C.ar   12  PHE12      -0.0003
     46  CE2       21.5730   10.1550   12.8230 C.ar   12  PHE12      -0.0003
     47  CZ        21.5470   10.9440   11.6690 C.ar   12  PHE12      -0.0000
     48  N         14.8540    7.0060   13.2340 N.3    15  GLN15      -0.1231
     49  CA        14.5660    7.2330   11.8220 C.3    15  GLN15       0.1698
     50  C         15.6640    6.8930   10.8140 C.2    15  GLN15       0.2592
     51  O         15.3630    6.4210    9.7150 O.2    15  GLN15      -0.2718
     52  CB        14.2120    8.7030   11.5920 C.3    15  GLN15       0.0381
     53  CG        12.8310    9.1360   12.0170 C.3    15  GLN15       0.0905
     54  CD        12.4050   10.4010   11.2860 C.2    15  GLN15       0.2608
     55  OE1       11.3660   10.4260   10.6430 O.2    15  GLN15      -0.2717
     56  NE2       13.2310   11.4520   11.3660 N.am   15  GLN15      -0.0878
     57  N         16.9220    7.1300   11.1850 N.am   16  HIS16      -0.1976
     58  CA        18.0350    6.9660   10.2510 C.3    16  HIS16       0.1656
     59  C         19.1740    6.0130   10.5580 C.2    16  HIS16       0.2291
     60  O         20.1140    5.8930    9.7490 O.2    16  HIS16      -0.2864
     61  CB        18.6540    8.3390    9.9910 C.3    16  HIS16       0.0771
     62  CG        17.6610    9.3880    9.6250 C.ar   16  HIS16       0.0820
     63  ND1       16.8800    9.3090    8.4950 N.ar   16  HIS16      -0.2267
     64  CD2       17.3330   10.5530   10.2290 C.ar   16  HIS16       0.1154
     65  CE1       16.1160   10.3830    8.4170 C.ar   16  HIS16       0.1986
     66  NE2       16.3730   11.1520    9.4580 N.ar   16  HIS16      -0.2212
     67  N          4.8950    8.0770   14.2770 N.3    35  GLN35      -0.1245
     68  CA         4.4590    9.3420   13.6960 C.3    35  GLN35       0.1566
     69  C          2.9650    9.4160   13.4170 C.2    35  GLN35       0.2260
     70  O          2.4310   10.5080   13.2140 O.2    35  GLN35      -0.2867
     71  CB         5.1880    9.5870   12.3780 C.3    35  GLN35       0.0367
     72  CG         6.6030   10.0480   12.5030 C.3    35  GLN35       0.0905
     73  CD         7.0970   10.6510   11.2070 C.2    35  GLN35       0.2608
     74  OE1        6.7080   10.2170   10.1190 O.2    35  GLN35      -0.2717
     75  NE2        7.9460   11.6630   11.3110 N.am   35  GLN35      -0.0878
     76  N          1.4080    8.2650   10.7450 N.3    37  ARG37      -0.1245
     77  CA         1.2210    8.6150    9.3420 C.3    37  ARG37       0.1563
     78  C          2.3210    7.9220    8.5560 C.2    37  ARG37       0.2260
     79  O          3.3990    7.6800    9.0880 O.2    37  ARG37      -0.2867
     80  CB         1.3150   10.1350    9.1540 C.3    37  ARG37       0.0307
     81  CG         2.6610   10.6280    8.6610 C.3    37  ARG37       0.0489
     82  CD         2.8790   12.0950    8.9840 C.3    37  ARG37       0.2205
     83  NE         4.3050   12.3900    9.0340 N.pl3  37  ARG37      -0.0865
     84  CZ         5.0790   12.4780    7.9600 C.cat  37  ARG37       0.5346
     85  NH1        6.3670   12.7460    8.0910 N.pl3  37  ARG37       0.1354
     86  NH2        4.5630   12.3070    6.7500 N.pl3  37  ARG37       0.1354
     87  N          5.2080    7.9970    6.3460 N.3    39  LYS39      -0.1245
     88  CA         6.2170    8.8800    5.8210 C.3    39  LYS39       0.1561
     89  C          6.4580    8.5020    4.3690 C.2    39  LYS39       0.2260
     90  O          6.6340    7.3250    4.0470 O.2    39  LYS39      -0.2867
     91  CB         7.4890    8.7260    6.6310 C.3    39  LYS39       0.0271
     92  CG         8.2620    9.9890    6.7370 C.3    39  LYS39       0.0035
     93  CD         9.6190    9.7250    7.3070 C.3    39  LYS39       0.0206
     94  CE        10.4680   10.9700    7.2160 C.3    39  LYS39       0.1093
     95  NZ        11.6810   10.8260    8.0330 N.3    39  LYS39      -0.1314
     96  N         23.2920   23.9240    5.8760 N.3    63  CYS63      -0.1235
     97  CA        22.3830   22.8020    5.6030 C.3    63  CYS63       0.1677
     98  C         21.6720   23.0380    4.2740 C.2    63  CYS63       0.2270
     99  O         20.9060   23.9880    4.1450 O.2    63  CYS63      -0.2867
    100  CB        21.3320   22.6900    6.7050 C.3    63  CYS63       0.0956
    101  SG        22.0010   22.3320    8.3530 S.3    63  CYS63      -0.0801
    102  N         19.1770   21.6810    3.0170 N.3    65  SER65      -0.1202
    103  CA        17.7220   21.5950    3.1600 C.3    65  SER65       0.2020
    104  C         17.1170   22.7500    3.9710 C.2    65  SER65       0.2618
    105  O         15.9170   23.0090    3.8860 O.2    65  SER65      -0.2717
    106  CB        17.3250   20.2430    3.7460 C.3    65  SER65       0.2103
    107  OG        17.5110   19.2170    2.7750 O.3    65  SER65      -0.2182
    108  N         17.9380   23.4160    4.7800 N.am   66  ASN66      -0.1974
    109  CA        17.5140   24.6150    5.5180 C.3    66  ASN66       0.1688
    110  C         18.6780   25.5800    5.4720 C.2    66  ASN66       0.2292
    111  O         19.4980   25.6430    6.3950 O.2    66  ASN66      -0.2864
    112  CB        17.1500   24.3810    6.9820 C.3    66  ASN66       0.1181
    113  CG        16.4590   25.6220    7.6070 C.2    66  ASN66       0.2629
    114  OD1       16.6340   26.7580    7.1320 O.2    66  ASN66      -0.2716
    115  ND2       15.6700   25.4030    8.6580 N.am   66  ASN66      -0.0877
    116  N         20.4150   27.4610    8.3440 N.3    69  ARG69      -0.1245
    117  CA        21.1430   26.7620    9.4040 C.3    69  ARG69       0.1563
    118  C         22.5990   26.4190    9.0740 C.2    69  ARG69       0.2260
    119  O         22.9180   25.9980    7.9690 O.2    69  ARG69      -0.2867
    120  CB        20.3730   25.5030    9.7810 C.3    69  ARG69       0.0307
    121  CG        18.8670   25.7340    9.8470 C.3    69  ARG69       0.0489
    122  CD        18.4560   26.3730   11.1510 C.3    69  ARG69       0.2205
    123  NE        18.6760   25.4570   12.2640 N.pl3  69  ARG69      -0.0865
    124  CZ        19.5160   25.6920   13.2700 C.cat  69  ARG69       0.5346
    125  NH1       20.2150   26.8170   13.3010 N.pl3  69  ARG69       0.1354
    126  NH2       19.6590   24.7990   14.2440 N.pl3  69  ARG69       0.1354
    127  N         24.4680   24.3640   11.2710 N.3    71  ASN71      -0.1240
    128  CA        24.8290   23.2690   12.1670 C.3    71  ASN71       0.1653
    129  C         24.9400   21.9270   11.4470 C.2    71  ASN71       0.2266
    130  O         24.8260   20.8730   12.0630 O.2    71  ASN71      -0.2867
    131  CB        23.8160   23.1710   13.3220 C.3    71  ASN71       0.1155
    132  CG        22.4120   22.7800   12.8570 C.2    71  ASN71       0.2627
    133  OD1       22.0390   22.9920   11.7020 O.2    71  ASN71      -0.2716
    134  ND2       21.6270   22.2140   13.7660 N.am   71  ASN71      -0.0877
    135  N         22.6720   17.4420   10.5380 N.3   111  ALA111     -0.1245
    136  CA        22.5840   18.6180   11.3890 C.3   111  ALA111      0.1562
    137  C         22.8390   18.0390   12.7810 C.2   111  ALA111      0.2260
    138  O         22.2990   16.9840   13.1380 O.2   111  ALA111     -0.2867
    139  CB        21.2040   19.2210   11.3220 C.3   111  ALA111      0.0290
    140  N         20.7810   15.3990   14.8950 N.3   129  VAL129     -0.1231
    141  CA        19.3690   15.6400   15.1720 C.3   129  VAL129      0.1692
    142  C         18.5050   15.6260   13.9150 C.2   129  VAL129      0.2592
    143  O         17.2900   15.5620   14.0070 O.2   129  VAL129     -0.2718
    144  CB        19.1700   16.9840   15.9180 C.3   129  VAL129      0.0266
    145  CG1       19.8050   16.8980   17.2990 C.3   129  VAL129      0.0020
    146  CG2       19.7860   18.1360   15.1250 C.3   129  VAL129      0.0020
    147  N         19.1320   15.6850   12.7420 N.am  130  HIS130     -0.1962
    148  CA        18.4030   15.6550   11.4720 C.3   130  HIS130      0.1787
    149  C         19.3040   15.1590   10.3580 C.2   130  HIS130      0.2620
    150  O         20.4920   15.4770   10.3390 O.2   130  HIS130     -0.2715
    151  CB        17.9100   17.0540   11.0610 C.3   130  HIS130      0.0785
    152  CG        16.8930   17.6330   11.9870 C.ar  130  HIS130      0.0821
    153  ND1       15.6460   17.0760   12.1620 N.ar  130  HIS130     -0.2267
    154  CD2       16.9600   18.6850   12.8390 C.ar  130  HIS130      0.1154
    155  CE1       14.9880   17.7560   13.0860 C.ar  130  HIS130      0.1986
    156  NE2       15.7630   18.7390   13.5130 N.ar  130  HIS130     -0.2212
    157  N         18.7480   14.3680    9.4420 N.am  131  LEU131     -0.1963
    158  CA        19.5170   13.9090    8.2900 C.3   131  LEU131      0.1728
    159  C         19.1100   14.9220    7.2380 C.2   131  LEU131      0.2616
    160  O         18.0450   14.8100    6.6370 O.2   131  LEU131     -0.2715
    161  CB        19.1040   12.5060    7.8350 C.3   131  LEU131      0.0311
    162  CG        19.8430   11.9930    6.5830 C.3   131  LEU131      0.0022
    163  CD1       21.3510   12.2500    6.7160 C.3   131  LEU131      0.0001
    164  CD2       19.5780   10.4950    6.3990 C.3   131  LEU131      0.0001
    165  N         19.9540   15.9190    7.0210 N.am  132  ASP132     -0.1971
    166  CA        19.6270   16.9790    6.0730 C.3   132  ASP132      0.1709
    167  C         19.6870   16.5900    4.6040 C.2   132  ASP132      0.2293
    168  O         18.8920   17.0850    3.7850 O.2   132  ASP132     -0.2864
    169  CB        20.5320   18.1930    6.3210 C.3   132  ASP132      0.1436
    170  CG        19.9890   19.4580    5.6840 C.2   132  ASP132      0.3671
    171  OD1       20.3340   19.7150    4.5140 O.co2 132  ASP132     -0.2456
    172  OD2       19.2170   20.1880    6.3440 O.co2 132  ASP132     -0.2456
@<TRIPOS>BOND
     1   107   106    1
     2   102   103    1
     3   103   106    1
     4   103   104    1
     5   168   167    2
     6   105   104    2
     7   104   108   am
     8    90    89    2
     9    99    98    2
    10    98    97    1
    11    89    88    1
    12   171   170   ar
    13   167   166    1
    14   108   109    1
    15   110   109    1
    16   110   111    2
    17   109   112    1
    18    97    96    1
    19    97   100    1
    20   170   169    1
    21   170   172   ar
    22    88    87    1
    23    88    91    1
    24   166   169    1
    25   166   165    1
    26   164   162    1
    27   162   163    1
    28   162   161    1
    29    91    92    1
    30   160   159    2
    31   100   101    1
    32    92    93    1
    33    86    84    1
    34   112   113    1
    35   165   159   am
    36   114   113    2
    37    94    93    1
    38    94    95    1
    39   159   158    1
    40   113   115   am
    41   161   158    1
    42    84    85    1
    43    84    83    2
    44   119   118    2
    45   158   157    1
    46   116   117    1
    47    65    63   ar
    48    65    66   ar
    49    63    62   ar
    50    78    79    2
    51    78    77    1
    52    81    82    1
    53    81    80    1
    54    82    83    1
    55   118   117    1
    56    80    77    1
    57    77    76    1
    58   117   120    1
    59   157   149   am
    60    66    64   ar
    61    62    61    1
    62    62    64   ar
    63    51    50    2
    64    60    59    2
    65   120   121    1
    66   121   122    1
    67    61    58    1
    68    74    73    2
    69    58    59    1
    70    58    57    1
    71   150   149    2
    72   149   148    1
    73   135   136    1
    74    55    54    2
    75    50    57   am
    76    50    49    1
    77   151   148    1
    78   151   152    1
    79   122   123    1
    80    73    75   am
    81    73    72    1
    82   127   128    1
    83    54    56   am
    84    54    53    1
    85   139   136    1
    86   136   137    1
    87   129   130    2
    88   129   128    1
    89   148   147    1
    90    45    47   ar
    91    45    43   ar
    92    52    49    1
    93    52    53    1
    94    47    46   ar
    95   133   132    2
    96    49    48    1
    97   152   153   ar
    98   152   154   ar
    99     7     8    1
   100     7     6    1
   101   153   155   ar
   102   128   131    1
   103   123   124    2
   104    71    72    1
   105    71    68    1
   106     1     2    1
   107    43    42   ar
   108   147   142   am
   109   137   138    2
   110    46    44   ar
   111   154   156   ar
   112   132   131    1
   113   132   134   am
   114   155   156   ar
   115    70    69    2
   116   124   125    1
   117   124   126    1
   118    40    39    2
   119    69    68    1
   120    42    44   ar
   121    42    41    1
   122    68    67    1
   123     6     5    1
   124    31    32   ar
   125    31    29   ar
   126     2     5    1
   127     2     3    1
   128   142   143    2
   129   142   141    1
   130    34    32   ar
   131    34    36   ar
   132     4     3    2
   133    32    30   ar
   134    39    38    1
   135    38    41    1
   136    38    37    1
   137    36    35   ar
   138    29    28   ar
   139    26    25    2
   140   140   141    1
   141   146   144    1
   142   141   144    1
   143    30    28   ar
   144    30    33   ar
   145    37    25   am
   146    28    27    1
   147    25    24    1
   148    35    33   ar
   149    21    22   ar
   150    21    19   ar
   151   144   145    1
   152    22    20   ar
   153    19    16   ar
   154    27    24    1
   155    24    23    1
   156    12    11    2
   157    20    18   ar
   158    16    18   ar
   159    16    14   ar
   160    18    17   ar
   161    11    10    1
   162    13    14    1
   163    13    10    1
   164    14    15   ar
   165    10     9    1
   166    17    15   ar
