@<TRIPOS>MOLECULE
tmp/1hi4A00.pdb
 160 155 0 0 0
SMALL
GASTEIGER

@<TRIPOS>ATOM
      1  N          8.0190   16.6930   14.1020 N.3     1  MET1       -0.1245
      2  CA         6.9640   15.6730   14.2440 C.3     1  MET1        0.1570
      3  C          7.5570   14.3660   14.6940 C.2     1  MET1        0.2261
      4  O          7.7980   13.4530   13.9050 O.2     1  MET1       -0.2867
      5  CB         6.2380   15.4550   12.9310 C.3     1  MET1        0.0387
      6  CG         5.2530   14.3220   12.9960 C.3     1  MET1        0.0595
      7  SD         4.1780   14.4550   11.6050 S.3     1  MET1       -0.1393
      8  CE         3.2820   12.8980   11.6970 C.3     1  MET1        0.0692
      9  N         15.3920   14.6980   20.0490 N.3     8  TRP8       -0.1241
     10  CA        15.6410   14.7530   18.6110 C.3     8  TRP8        0.1605
     11  C         16.6810   13.7150   18.1950 C.2     8  TRP8        0.2264
     12  O         16.5500   13.0890   17.1470 O.2     8  TRP8       -0.2867
     13  CB        16.0820   16.1530   18.1900 C.3     8  TRP8        0.0550
     14  CG        14.9470   17.1190   18.2230 C.ar    8  TRP8        0.0003
     15  CD1       14.7310   18.0930   19.1460 C.ar    8  TRP8        0.0946
     16  CD2       13.8330   17.1520   17.3310 C.ar    8  TRP8        0.0152
     17  NE1       13.5440   18.7350   18.8890 N.ar    8  TRP8       -0.2442
     18  CE2       12.9700   18.1760   17.7790 C.ar    8  TRP8        0.0810
     19  CE3       13.4750   16.4110   16.1940 C.ar    8  TRP8        0.0012
     20  CZ2       11.7660   18.4840   17.1280 C.ar    8  TRP8        0.0191
     21  CZ3       12.2730   16.7140   15.5400 C.ar    8  TRP8        0.0001
     22  CH2       11.4340   17.7470   16.0150 C.ar    8  TRP8        0.0015
     23  N         15.1380   10.2800   18.0770 N.3    11  TRP11      -0.1227
     24  CA        14.2540   10.1830   16.9290 C.3    11  TRP11       0.1737
     25  C         15.1020   10.0420   15.6540 C.2    11  TRP11       0.2595
     26  O         14.7400    9.3200   14.7300 O.2    11  TRP11      -0.2718
     27  CB        13.3660   11.4220   16.8480 C.3    11  TRP11       0.0564
     28  CG        12.3460   11.3580   15.7340 C.ar   11  TRP11       0.0003
     29  CD1       12.1780   12.2700   14.7320 C.ar   11  TRP11       0.0946
     30  CD2       11.3530   10.3360   15.5210 C.ar   11  TRP11       0.0152
     31  NE1       11.1520   11.8880   13.9150 N.ar   11  TRP11      -0.2442
     32  CE2       10.6230   10.7070   14.3680 C.ar   11  TRP11       0.0810
     33  CE3       11.0120    9.1500   16.1900 C.ar   11  TRP11       0.0012
     34  CZ2        9.5600    9.9320   13.8590 C.ar   11  TRP11       0.0191
     35  CZ3        9.9570    8.3740   15.6880 C.ar   11  TRP11       0.0001
     36  CH2        9.2440    8.7730   14.5300 C.ar   11  TRP11       0.0015
     37  N         16.2320   10.7430   15.6040 N.am   12  PHE12      -0.1976
     38  CA        17.1120   10.6470   14.4530 C.3    12  PHE12       0.1639
     39  C         17.5730    9.1900   14.3270 C.2    12  PHE12       0.2290
     40  O         17.6100    8.6090   13.2370 O.2    12  PHE12      -0.2864
     41  CB        18.3280   11.5600   14.6410 C.3    12  PHE12       0.0560
     42  CG        19.3880   11.3650   13.5980 C.ar   12  PHE12      -0.0200
     43  CD1       19.3730   12.1140   12.4280 C.ar   12  PHE12      -0.0042
     44  CD2       20.3940   10.4160   13.7770 C.ar   12  PHE12      -0.0042
     45  CE1       20.3470   11.9190   11.4460 C.ar   12  PHE12      -0.0003
     46  CE2       21.3730   10.2130   12.8030 C.ar   12  PHE12      -0.0003
     47  CZ        21.3510   10.9640   11.6360 C.ar   12  PHE12      -0.0000
     48  N         14.7240    7.0070   13.0600 N.3    15  GLN15      -0.1231
     49  CA        14.4490    7.2530   11.6490 C.3    15  GLN15       0.1698
     50  C         15.5470    6.9290   10.6380 C.2    15  GLN15       0.2592
     51  O         15.2570    6.4250    9.5590 O.2    15  GLN15      -0.2718
     52  CB        14.0810    8.7250   11.4280 C.3    15  GLN15       0.0381
     53  CG        12.7070    9.1670   11.8950 C.3    15  GLN15       0.0905
     54  CD        12.2660   10.4390   11.1750 C.2    15  GLN15       0.2608
     55  OE1       11.2680   10.4420   10.4560 O.2    15  GLN15      -0.2717
     56  NE2       13.0270   11.5190   11.3520 N.am   15  GLN15      -0.0878
     57  N         16.7980    7.2210   10.9850 N.am   16  HIS16      -0.1976
     58  CA        17.8930    7.0490   10.0430 C.3    16  HIS16       0.1656
     59  C         19.0550    6.1510   10.3910 C.2    16  HIS16       0.2291
     60  O         20.0040    6.0850    9.6150 O.2    16  HIS16      -0.2864
     61  CB        18.4500    8.4230    9.6760 C.3    16  HIS16       0.0771
     62  CG        17.3940    9.4370    9.3600 C.ar   16  HIS16       0.0820
     63  ND1       16.6760    9.4200    8.1850 N.ar   16  HIS16      -0.2267
     64  CD2       16.9250   10.4890   10.0720 C.ar   16  HIS16       0.1154
     65  CE1       15.8090   10.4170    8.1840 C.ar   16  HIS16       0.1986
     66  NE2       15.9400   11.0810    9.3180 N.ar   16  HIS16      -0.2212
     67  N          5.0040    7.8490    6.2980 N.3    39  LYS39      -0.1245
     68  CA         5.9530    8.7740    5.7110 C.3    39  LYS39       0.1561
     69  C          6.1660    8.4290    4.2340 C.2    39  LYS39       0.2260
     70  O          6.3310    7.2660    3.8830 O.2    39  LYS39      -0.2867
     71  CB         7.2710    8.6850    6.4690 C.3    39  LYS39       0.0271
     72  CG         7.9220   10.0040    6.7140 C.3    39  LYS39       0.0035
     73  CD         9.2560    9.7940    7.3600 C.3    39  LYS39       0.0206
     74  CE        10.2340   10.8540    6.9130 C.3    39  LYS39       0.1093
     75  NZ        11.4640   10.8130    7.7420 N.3    39  LYS39      -0.1314
     76  N         23.1350   24.2010    5.8590 N.3    63  CYS63      -0.1235
     77  CA        22.2320   23.0850    5.5750 C.3    63  CYS63       0.1677
     78  C         21.5510   23.2360    4.2190 C.2    63  CYS63       0.2270
     79  O         20.7550   24.1580    4.0240 O.2    63  CYS63      -0.2867
     80  CB        21.1490   23.0000    6.6470 C.3    63  CYS63       0.0956
     81  SG        21.7630   22.5790    8.2960 S.3    63  CYS63      -0.0801
     82  N         18.9870   22.0370    2.9520 N.3    65  SER65      -0.1202
     83  CA        17.5470   22.2260    3.1220 C.3    65  SER65       0.2020
     84  C         17.1780   23.6060    3.6790 C.2    65  SER65       0.2618
     85  O         16.1240   24.1480    3.3530 O.2    65  SER65      -0.2717
     86  CB        16.9870   21.1610    4.0560 C.3    65  SER65       0.2103
     87  OG        16.7160   21.7240    5.3310 O.3    65  SER65      -0.2182
     88  N         18.0330   24.1600    4.5360 N.am   66  ASN66      -0.1974
     89  CA        17.7900   25.4780    5.1260 C.3    66  ASN66       0.1688
     90  C         19.0380   26.3670    5.1210 C.2    66  ASN66       0.2292
     91  O         19.9680   26.1880    5.9110 O.2    66  ASN66      -0.2864
     92  CB        17.2760   25.3470    6.5590 C.3    66  ASN66       0.1181
     93  CG        16.4800   26.5740    7.0120 C.2    66  ASN66       0.2629
     94  OD1       16.8320   27.7230    6.7050 O.2    66  ASN66      -0.2716
     95  ND2       15.4050   26.3300    7.7530 N.am   66  ASN66      -0.0877
     96  N         20.4510   27.8660    8.2910 N.3    69  ARG69      -0.1245
     97  CA        21.0830   26.9910    9.2740 C.3    69  ARG69       0.1563
     98  C         22.5510   26.6590    9.0320 C.2    69  ARG69       0.2260
     99  O         22.9450   26.2690    7.9390 O.2    69  ARG69      -0.2867
    100  CB        20.2930   25.7030    9.3620 C.3    69  ARG69       0.0307
    101  CG        18.8620   25.9470    9.7100 C.3    69  ARG69       0.0489
    102  CD        18.7540   26.4770   11.1210 C.3    69  ARG69       0.2205
    103  NE        18.1670   25.4930   12.0280 N.pl3  69  ARG69      -0.0865
    104  CZ        16.9320   25.0060   11.9160 C.cat  69  ARG69       0.5346
    105  NH1       16.1360   25.4090   10.9270 N.pl3  69  ARG69       0.1354
    106  NH2       16.4870   24.1310   12.8090 N.pl3  69  ARG69       0.1354
    107  N         24.1970   24.5330   11.2990 N.3    71  ASN71      -0.1240
    108  CA        24.5180   23.3990   12.1650 C.3    71  ASN71       0.1653
    109  C         24.6430   22.0720   11.4340 C.2    71  ASN71       0.2266
    110  O         24.5700   21.0120   12.0540 O.2    71  ASN71      -0.2867
    111  CB        23.4900   23.2730   13.3050 C.3    71  ASN71       0.1155
    112  CG        22.0830   23.0040   12.8050 C.2    71  ASN71       0.2627
    113  OD1       21.7450   23.3080   11.6550 O.2    71  ASN71      -0.2716
    114  ND2       21.2460   22.4300   13.6740 N.am   71  ASN71      -0.0877
    115  N         22.4320   17.6250   10.5470 N.3   111  ALA111     -0.1245
    116  CA        22.4100   18.7960   11.3940 C.3   111  ALA111      0.1562
    117  C         22.5990   18.2050   12.7870 C.2   111  ALA111      0.2260
    118  O         21.9870   17.1830   13.1280 O.2   111  ALA111     -0.2867
    119  CB        21.0750   19.4930   11.2960 C.3   111  ALA111      0.0290
    120  N         23.2330   19.1400   17.1450 N.3   113  ASP113     -0.1239
    121  CA        22.9920   20.1150   18.1910 C.3   113  ASP113      0.1674
    122  C         23.4630   19.5530   19.5200 C.2   113  ASP113      0.2266
    123  O         23.7940   18.3720   19.6400 O.2   113  ASP113     -0.2867
    124  CB        21.4860   20.4030   18.3120 C.3   113  ASP113      0.1410
    125  CG        20.9930   21.4440   17.3210 C.2   113  ASP113      0.3668
    126  OD1       21.7720   22.3410   16.9410 O.co2 113  ASP113     -0.2456
    127  OD2       19.8130   21.3760   16.9190 O.co2 113  ASP113     -0.2456
    128  N         20.5570   15.5070   14.8920 N.3   129  VAL129     -0.1231
    129  CA        19.1470   15.7300   15.1810 C.3   129  VAL129      0.1692
    130  C         18.2890   15.7360   13.9210 C.2   129  VAL129      0.2592
    131  O         17.0630   15.6920   14.0040 O.2   129  VAL129     -0.2718
    132  CB        18.9330   17.0670   15.9390 C.3   129  VAL129      0.0266
    133  CG1       19.5210   16.9740   17.3670 C.3   129  VAL129      0.0020
    134  CG2       19.5640   18.2060   15.1670 C.3   129  VAL129      0.0020
    135  N         18.9290   15.7490   12.7540 N.am  130  HIS130     -0.1962
    136  CA        18.1870   15.7930   11.5030 C.3   130  HIS130      0.1787
    137  C         19.0720   15.3600   10.3390 C.2   130  HIS130      0.2620
    138  O         20.2580   15.6780   10.3030 O.2   130  HIS130     -0.2715
    139  CB        17.6580   17.2330   11.3230 C.3   130  HIS130      0.0785
    140  CG        17.4590   17.6630    9.9020 C.ar  130  HIS130      0.0821
    141  ND1       16.2860   17.4390    9.2110 N.ar  130  HIS130     -0.2267
    142  CD2       18.2570   18.3700    9.0630 C.ar  130  HIS130      0.1154
    143  CE1       16.3690   17.9860    8.0100 C.ar  130  HIS130      0.1986
    144  NE2       17.5540   18.5590    7.8950 N.ar  130  HIS130     -0.2212
    145  N         18.5060   14.6000    9.4060 N.am  131  LEU131     -0.1963
    146  CA        19.2430   14.1690    8.2250 C.3   131  LEU131      0.1728
    147  C         18.8490   15.1770    7.1550 C.2   131  LEU131      0.2616
    148  O         17.7500   15.1160    6.6110 O.2   131  LEU131     -0.2715
    149  CB        18.8290   12.7600    7.8000 C.3   131  LEU131      0.0311
    150  CG        19.5270   12.2450    6.5250 C.3   131  LEU131      0.0022
    151  CD1       21.0260   12.5200    6.6050 C.3   131  LEU131      0.0001
    152  CD2       19.2860   10.7400    6.3650 C.3   131  LEU131      0.0001
    153  N         19.7380   16.1170    6.8580 N.am  132  ASP132     -0.1971
    154  CA        19.4180   17.1530    5.8830 C.3   132  ASP132      0.1709
    155  C         19.4160   16.6950    4.4330 C.2   132  ASP132      0.2293
    156  O         18.4990   17.0110    3.6650 O.2   132  ASP132     -0.2864
    157  CB        20.3720   18.3440    6.0450 C.3   132  ASP132      0.1436
    158  CG        19.7770   19.6420    5.5140 C.2   132  ASP132      0.3671
    159  OD1       20.1050   20.0250    4.3710 O.co2 132  ASP132     -0.2456
    160  OD2       18.9800   20.2800    6.2380 O.co2 132  ASP132     -0.2456
@<TRIPOS>BOND
     1    82    83    1
     2    83    84    1
     3    83    86    1
     4    85    84    2
     5   156   155    2
     6    84    88   am
     7    70    69    2
     8    79    78    2
     9    86    87    1
    10    78    77    1
    11    69    68    1
    12   159   158   ar
    13   155   154    1
    14    88    89    1
    15    90    89    1
    16    90    91    2
    17    89    92    1
    18   158   157    1
    19   158   160   ar
    20    77    76    1
    21    77    80    1
    22    68    67    1
    23    68    71    1
    24   154   157    1
    25   154   153    1
    26   152   150    1
    27    71    72    1
    28   150   151    1
    29   150   149    1
    30    92    93    1
    31   148   147    2
    32    80    81    1
    33    94    93    2
    34    72    73    1
    35   153   147   am
    36    74    73    1
    37    74    75    1
    38    93    95   am
    39   147   146    1
    40   149   146    1
    41   144   143   ar
    42   144   142   ar
    43    99    98    2
    44   143   141   ar
    45    65    63   ar
    46    65    66   ar
    47    63    62   ar
    48   146   145    1
    49    96    97    1
    50    98    97    1
    51   142   140   ar
    52   141   140   ar
    53    97   100    1
    54    66    64   ar
    55    62    61    1
    56    62    64   ar
    57   100   101    1
    58   145   137   am
    59    51    50    2
    60    60    59    2
    61    61    58    1
    62   101   102    1
    63   140   139    1
    64    58    59    1
    65    58    57    1
    66   138   137    2
    67   137   136    1
    68    55    54    2
    69   115   116    1
    70    50    57   am
    71    50    49    1
    72   105   104    1
    73   102   103    1
    74    54    56   am
    75    54    53    1
    76   119   116    1
    77   107   108    1
    78   139   136    1
    79   116   117    1
    80    52    49    1
    81    52    53    1
    82   109   110    2
    83   109   108    1
    84    45    47   ar
    85    45    43   ar
    86   136   135    1
    87     7     8    1
    88     7     6    1
    89    47    46   ar
    90    49    48    1
    91   113   112    2
    92   104   103    2
    93   104   106    1
    94   108   111    1
    95    43    42   ar
    96   135   130   am
    97   117   118    2
    98    46    44   ar
    99   112   111    1
   100   112   114   am
   101     5     6    1
   102     5     2    1
   103    40    39    2
   104    42    44   ar
   105    42    41    1
   106    34    32   ar
   107    34    36   ar
   108     4     3    2
   109    31    32   ar
   110    31    29   ar
   111   130   131    2
   112   130   129    1
   113     1     2    1
   114     2     3    1
   115    39    38    1
   116    32    30   ar
   117    38    41    1
   118    38    37    1
   119    36    35   ar
   120    26    25    2
   121    29    28   ar
   122   128   129    1
   123   134   132    1
   124   129   132    1
   125    30    28   ar
   126    30    33   ar
   127    21    22   ar
   128    21    19   ar
   129    37    25   am
   130    25    24    1
   131    35    33   ar
   132    28    27    1
   133   132   133    1
   134    22    20   ar
   135    19    16   ar
   136    27    24    1
   137   127   125   ar
   138    24    23    1
   139   126   125   ar
   140    20    18   ar
   141   120   121    1
   142    12    11    2
   143   125   124    1
   144    16    18   ar
   145    16    14   ar
   146    18    17   ar
   147    13    14    1
   148    13    10    1
   149   121   124    1
   150   121   122    1
   151    11    10    1
   152    14    15   ar
   153    10     9    1
   154    17    15   ar
   155   122   123    2
