@<TRIPOS>MOLECULE
tmp/1hi5A00.pdb
 140 139 0 0 0
SMALL
GASTEIGER

@<TRIPOS>ATOM
      1  N         15.2670   10.2150   18.2910 N.3    11  TRP11      -0.1227
      2  CA        14.3710   10.0970   17.1540 C.3    11  TRP11       0.1737
      3  C         15.2080    9.9540   15.8790 C.2    11  TRP11       0.2595
      4  O         14.7900    9.2840   14.9270 O.2    11  TRP11      -0.2718
      5  CB        13.4670   11.3330   17.0980 C.3    11  TRP11       0.0564
      6  CG        12.4360   11.2880   16.0220 C.ar   11  TRP11       0.0003
      7  CD1       12.2400   12.2240   15.0490 C.ar   11  TRP11       0.0946
      8  CD2       11.4590   10.2560   15.7950 C.ar   11  TRP11       0.0152
      9  NE1       11.2050   11.8420   14.2270 N.ar   11  TRP11      -0.2442
     10  CE2       10.7080   10.6390   14.6580 C.ar   11  TRP11       0.0810
     11  CE3       11.1460    9.0470   16.4400 C.ar   11  TRP11       0.0012
     12  CZ2        9.6600    9.8560   14.1450 C.ar   11  TRP11       0.0191
     13  CZ3       10.0980    8.2650   15.9310 C.ar   11  TRP11       0.0001
     14  CH2        9.3710    8.6770   14.7920 C.ar   11  TRP11       0.0015
     15  N         16.3890   10.5780   15.8670 N.am   12  PHE12      -0.1976
     16  CA        17.2960   10.5010   14.7210 C.3    12  PHE12       0.1639
     17  C         17.7900    9.0610   14.5990 C.2    12  PHE12       0.2290
     18  O         17.8770    8.4860   13.4910 O.2    12  PHE12      -0.2864
     19  CB        18.5020   11.4320   14.9120 C.3    12  PHE12       0.0560
     20  CG        19.5580   11.2550   13.8630 C.ar   12  PHE12      -0.0200
     21  CD1       19.5200   12.0070   12.6790 C.ar   12  PHE12      -0.0042
     22  CD2       20.5570   10.2880   14.0180 C.ar   12  PHE12      -0.0042
     23  CE1       20.4630   11.8010   11.6520 C.ar   12  PHE12      -0.0003
     24  CE2       21.5030   10.0690   13.0000 C.ar   12  PHE12      -0.0003
     25  CZ        21.4540   10.8310   11.8090 C.ar   12  PHE12      -0.0000
     26  N         14.9890    6.8450   13.3950 N.3    15  GLN15      -0.1231
     27  CA        14.6770    7.0570   11.9850 C.3    15  GLN15       0.1698
     28  C         15.7430    6.7420   10.9480 C.2    15  GLN15       0.2592
     29  O         15.4200    6.2620    9.8520 O.2    15  GLN15      -0.2718
     30  CB        14.2720    8.5030   11.7550 C.3    15  GLN15       0.0381
     31  CG        12.9380    8.9030   12.3020 C.3    15  GLN15       0.0905
     32  CD        12.4810   10.1870   11.6480 C.2    15  GLN15       0.2608
     33  OE1       11.4490   10.2220   10.9880 O.2    15  GLN15      -0.2717
     34  NE2       13.2660   11.2490   11.8150 N.am   15  GLN15      -0.0878
     35  N         16.9990    7.0220   11.2820 N.am   16  HIS16      -0.1976
     36  CA        18.0760    6.8420   10.3240 C.3    16  HIS16       0.1656
     37  C         19.1940    5.8600   10.6580 C.2    16  HIS16       0.2291
     38  O         20.0650    5.6220    9.8220 O.2    16  HIS16      -0.2864
     39  CB        18.6740    8.2130   10.0150 C.3    16  HIS16       0.0771
     40  CG        17.6460    9.2350    9.6520 C.ar   16  HIS16       0.0820
     41  ND1       16.9080    9.1610    8.4920 N.ar   16  HIS16      -0.2267
     42  CD2       17.1880   10.3220   10.3210 C.ar   16  HIS16       0.1154
     43  CE1       16.0390   10.1550    8.4610 C.ar   16  HIS16       0.1986
     44  NE2       16.1890   10.8740    9.5590 N.ar   16  HIS16      -0.2212
     45  N          1.4830    8.3620   10.9980 N.3    37  ARG37      -0.1245
     46  CA         1.3400    8.7660    9.6140 C.3    37  ARG37       0.1563
     47  C          2.4680    8.0920    8.8750 C.2    37  ARG37       0.2260
     48  O          3.5530    7.8890    9.4290 O.2    37  ARG37      -0.2867
     49  CB         1.4290   10.2940    9.4720 C.3    37  ARG37       0.0307
     50  CG         2.6220   10.8090    8.6860 C.3    37  ARG37       0.0489
     51  CD         2.8400   12.2990    8.9300 C.3    37  ARG37       0.2205
     52  NE         4.2610   12.6360    8.9130 N.pl3  37  ARG37      -0.0865
     53  CZ         5.0360   12.5450    7.8360 C.cat  37  ARG37       0.5346
     54  NH1        6.3210   12.8700    7.9070 N.pl3  37  ARG37       0.1354
     55  NH2        4.5220   12.1320    6.6810 N.pl3  37  ARG37       0.1354
     56  N          5.3930    8.0960    6.6650 N.3    39  LYS39      -0.1231
     57  CA         6.4020    9.0030    6.1330 C.3    39  LYS39       0.1693
     58  C          6.6360    8.6520    4.6620 C.2    39  LYS39       0.2592
     59  O          6.8650    7.4900    4.3140 O.2    39  LYS39      -0.2718
     60  CB         7.6950    8.8600    6.9340 C.3    39  LYS39       0.0285
     61  CG         8.6500   10.0170    6.7710 C.3    39  LYS39       0.0035
     62  CD         9.9050    9.7980    7.6060 C.3    39  LYS39       0.0206
     63  CE        10.9480   10.8930    7.3990 C.3    39  LYS39       0.1093
     64  NZ        12.1400   10.6860    8.2760 N.3    39  LYS39      -0.1314
     65  N          6.5780    9.6520    3.7950 N.am   40  ASN40      -0.1960
     66  CA         6.7580    9.3930    2.3750 C.3    40  ASN40       0.1819
     67  C          8.1390    8.8900    1.9510 C.2    40  ASN40       0.2621
     68  O          8.2650    8.0480    1.0510 O.2    40  ASN40      -0.2715
     69  CB         6.4190   10.6400    1.5690 C.3    40  ASN40       0.1195
     70  CG         6.0080   10.3000    0.1750 C.2    40  ASN40       0.2630
     71  OD1        6.6950   10.6370   -0.7890 O.2    40  ASN40      -0.2716
     72  ND2        4.8880    9.5980    0.0490 N.am   40  ASN40      -0.0877
     73  N          9.1690    9.4100    2.6050 N.am   41  GLN41      -0.1963
     74  CA        10.5440    9.0410    2.2950 C.3    41  GLN41       0.1733
     75  C         11.4500    9.0610    3.5320 C.2    41  GLN41       0.2616
     76  O         11.3910    9.9810    4.3560 O.2    41  GLN41      -0.2715
     77  CB        11.1030   10.0000    1.2460 C.3    41  GLN41       0.0408
     78  CG        11.7220    9.2910    0.0740 C.3    41  GLN41       0.0908
     79  CD        11.7330   10.1330   -1.1750 C.2    41  GLN41       0.2608
     80  OE1       12.7780   10.3200   -1.8020 O.2    41  GLN41      -0.2717
     81  NE2       10.5650   10.6470   -1.5520 N.am   41  GLN41      -0.0878
     82  N         12.2990    8.0500    3.6530 N.am   42  ASN42      -0.1958
     83  CA        13.2030    7.9780    4.7890 C.3    42  ASN42       0.1819
     84  C         14.4490    7.1580    4.4760 C.2    42  ASN42       0.2621
     85  O         14.3690    6.0520    3.9330 O.2    42  ASN42      -0.2715
     86  CB        12.4800    7.3790    5.9930 C.3    42  ASN42       0.1195
     87  CG        13.3470    7.3770    7.2380 C.2    42  ASN42       0.2630
     88  OD1       13.5740    8.4270    7.8500 O.2    42  ASN42      -0.2716
     89  ND2       13.8450    6.2010    7.6140 N.am   42  ASN42      -0.0877
     90  N         15.5990    7.7120    4.8350 N.am   43  THR43      -0.1951
     91  CA        16.8870    7.0760    4.6100 C.3    43  THR43       0.1897
     92  C         17.4680    6.4480    5.8810 C.2    43  THR43       0.2313
     93  O         17.5140    7.0760    6.9460 O.2    43  THR43      -0.2863
     94  CB        17.9230    8.1130    4.0660 C.3    43  THR43       0.1794
     95  OG1       17.4330    8.6840    2.8470 O.3    43  THR43      -0.2208
     96  CG2       19.2700    7.4670    3.8100 C.3    43  THR43       0.0378
     97  N         17.3160    3.5840    1.0850 N.3    83  HIS83      -0.1241
     98  CA        16.3130    4.6360    1.0260 C.3    83  HIS83       0.1621
     99  C         14.9070    4.0570    0.7880 C.2    83  HIS83       0.2264
    100  O         14.6590    3.3600   -0.1910 O.2    83  HIS83      -0.2867
    101  CB        16.6460    5.6410   -0.0610 C.3    83  HIS83       0.0745
    102  CG        15.7910    6.8600    0.0000 C.ar   83  HIS83       0.0817
    103  ND1       15.8960    7.7860    1.0120 N.ar   83  HIS83      -0.2268
    104  CD2       14.7680    7.2740   -0.7830 C.ar   83  HIS83       0.1154
    105  CE1       14.9750    8.7190    0.8510 C.ar   83  HIS83       0.1986
    106  NE2       14.2770    8.4310   -0.2310 N.ar   83  HIS83      -0.2212
    107  N         19.0490   15.6650   12.9430 N.3   130  HIS130     -0.1226
    108  CA        18.3330   15.7130   11.6720 C.3   130  HIS130      0.1752
    109  C         19.2290   15.2020   10.5490 C.2   130  HIS130      0.2596
    110  O         20.4310   15.4880   10.5260 O.2   130  HIS130     -0.2718
    111  CB        17.9370   17.1670   11.3190 C.3   130  HIS130      0.0759
    112  CG        16.7890   17.7130   12.1190 C.ar  130  HIS130      0.0818
    113  ND1       15.5340   17.1420   12.1150 N.ar  130  HIS130     -0.2268
    114  CD2       16.7090   18.7830   12.9490 C.ar  130  HIS130      0.1154
    115  CE1       14.7310   17.8350   12.9050 C.ar  130  HIS130      0.1986
    116  NE2       15.4200   18.8360   13.4240 N.ar  130  HIS130     -0.2212
    117  N         18.6470   14.4520    9.6160 N.am  131  LEU131     -0.1966
    118  CA        19.4020   13.9860    8.4660 C.3   131  LEU131      0.1728
    119  C         19.0730   15.0570    7.4580 C.2   131  LEU131      0.2616
    120  O         17.9730   15.0800    6.9090 O.2   131  LEU131     -0.2715
    121  CB        18.8890   12.6390    7.9600 C.3   131  LEU131      0.0311
    122  CG        19.5740   12.1800    6.6590 C.3   131  LEU131      0.0022
    123  CD1       21.1070   12.2160    6.8590 C.3   131  LEU131      0.0001
    124  CD2       19.0910   10.7620    6.2540 C.3   131  LEU131      0.0001
    125  N         20.0040   15.9650    7.2160 N.am  132  ASP132     -0.1971
    126  CA        19.7070   17.0380    6.2830 C.3   132  ASP132      0.1709
    127  C         19.7450   16.6450    4.8100 C.2   132  ASP132      0.2293
    128  O         18.9220   17.1240    4.0050 O.2   132  ASP132     -0.2864
    129  CB        20.6480   18.2270    6.5100 C.3   132  ASP132      0.1436
    130  CG        20.1330   19.4930    5.8560 C.2   132  ASP132      0.3671
    131  OD1       20.6270   19.8550    4.7650 O.co2 132  ASP132     -0.2456
    132  OD2       19.2200   20.1220    6.4310 O.co2 132  ASP132     -0.2456
    133  N         21.5020   13.5410    1.6710 N.3   134  ILE134     -0.1245
    134  CA        22.3970   12.4820    1.2370 C.3   134  ILE134      0.1561
    135  C         22.8750   12.9850   -0.1180 C.2   134  ILE134      0.2260
    136  O         22.0790   13.4340   -0.9480 O.2   134  ILE134     -0.2867
    137  CB        21.7110   11.0720    1.1130 C.3   134  ILE134      0.0252
    138  CG1       20.3230   11.1660    0.4840 C.3   134  ILE134      0.0019
    139  CG2       21.5890   10.4390    2.5030 C.3   134  ILE134      0.0019
    140  CD1       19.5720    9.8350    0.4700 C.3   134  ILE134      0.0001
@<TRIPOS>BOND
     1    80    79    2
     2    81    79   am
     3    79    78    1
     4   136   135    2
     5    71    70    2
     6   104   106   ar
     7   104   102   ar
     8   106   105   ar
     9   100    99    2
    10   135   134    1
    11   101   102    1
    12   101    98    1
    13   102   103   ar
    14    72    70   am
    15    78    77    1
    16    70    69    1
    17   140   138    1
    18   138   137    1
    19    99    98    1
    20   105   103   ar
    21    98    97    1
    22    68    67    2
    23   137   134    1
    24   137   139    1
    25   134   133    1
    26    77    74    1
    27    69    66    1
    28    67    66    1
    29    67    73   am
    30    74    73    1
    31    74    75    1
    32    66    65    1
    33    95    94    1
    34    75    82   am
    35    75    76    2
    36    82    83    1
    37    65    58   am
    38    96    94    1
    39    85    84    2
    40   128   127    2
    41    94    91    1
    42    59    58    2
    43    84    83    1
    44    84    90   am
    45    91    90    1
    46    91    92    1
    47    58    57    1
    48   131   130   ar
    49    83    86    1
    50   127   126    1
    51   130   132   ar
    52   130   129    1
    53    92    93    2
    54    86    87    1
    55    57    56    1
    56    57    60    1
    57   124   122    1
    58   126   129    1
    59   126   125    1
    60   122   123    1
    61   122   121    1
    62    55    53    1
    63    61    60    1
    64    61    62    1
    65   120   119    2
    66   125   119   am
    67    87    89   am
    68    87    88    2
    69    63    62    1
    70    63    64    1
    71   119   118    1
    72    53    54    1
    73    53    52    2
    74   121   118    1
    75    43    41   ar
    76    43    44   ar
    77   118   117    1
    78    41    40   ar
    79    50    51    1
    80    50    49    1
    81    47    48    2
    82    47    46    1
    83    52    51    1
    84    49    46    1
    85    44    42   ar
    86    46    45    1
    87   117   109   am
    88    40    39    1
    89    40    42   ar
    90    38    37    2
    91    29    28    2
    92    39    36    1
    93    36    37    1
    94    36    35    1
    95   110   109    2
    96   109   108    1
    97    28    35   am
    98    28    27    1
    99    33    32    2
   100   111   108    1
   101   111   112    1
   102    32    34   am
   103    32    31    1
   104    23    25   ar
   105    23    21   ar
   106   108   107    1
   107    30    27    1
   108    30    31    1
   109    25    24   ar
   110    27    26    1
   111   113   112   ar
   112   113   115   ar
   113   112   114   ar
   114    21    20   ar
   115   115   116   ar
   116   114   116   ar
   117    24    22   ar
   118    18    17    2
   119    20    22   ar
   120    20    19    1
   121    12    10   ar
   122    12    14   ar
   123     9    10   ar
   124     9     7   ar
   125    17    16    1
   126    10     8   ar
   127    16    19    1
   128    16    15    1
   129    14    13   ar
   130     4     3    2
   131     7     6   ar
   132     8     6   ar
   133     8    11   ar
   134    15     3   am
   135     3     2    1
   136    13    11   ar
   137     6     5    1
   138     5     2    1
   139     2     1    1
