@<TRIPOS>MOLECULE
tmp/1hi6A00.pdb
 114 110 0 0 0
SMALL
GASTEIGER

@<TRIPOS>ATOM
      1  N        -11.4060   53.2640  147.8160 N.3    32  PHE32      -0.1241
      2  CA        -9.9660   53.3280  147.5590 C.3    32  PHE32       0.1605
      3  C         -9.6970   54.5240  146.6520 C.2    32  PHE32       0.2264
      4  O         -9.4650   54.4030  145.4430 O.2    32  PHE32      -0.2867
      5  CB        -9.4620   52.0190  146.9410 C.3    32  PHE32       0.0534
      6  CG        -9.2850   50.9170  147.9480 C.ar   32  PHE32      -0.0203
      7  CD1       -8.3420   51.0360  148.9640 C.ar   32  PHE32      -0.0042
      8  CD2      -10.1070   49.7910  147.9270 C.ar   32  PHE32      -0.0042
      9  CE1       -8.2180   50.0510  149.9550 C.ar   32  PHE32      -0.0003
     10  CE2       -9.9940   48.7940  148.9170 C.ar   32  PHE32      -0.0003
     11  CZ        -9.0480   48.9280  149.9320 C.ar   32  PHE32      -0.0000
     12  N         -8.0750   58.8530  146.7290 N.3    34  THR34      -0.1218
     13  CA        -7.3540   59.9210  147.4200 C.3    34  THR34       0.1862
     14  C         -7.7210   61.2310  146.7410 C.2    34  THR34       0.2287
     15  O         -8.1660   61.2460  145.5860 O.2    34  THR34      -0.2866
     16  CB        -5.8160   59.7890  147.3200 C.3    34  THR34       0.1770
     17  OG1       -5.3700   60.2810  146.0510 O.3    34  THR34      -0.2211
     18  CG2       -5.4090   58.3590  147.4200 C.3    34  THR34       0.0375
     19  N         -1.2350   65.1190  148.8570 N.3    46  THR46      -0.1218
     20  CA        -2.4290   64.4080  149.2540 C.3    46  THR46       0.1862
     21  C         -3.1200   65.0580  150.4540 C.2    46  THR46       0.2287
     22  O         -2.4760   65.5500  151.3800 O.2    46  THR46      -0.2866
     23  CB        -2.0760   62.9370  149.5590 C.3    46  THR46       0.1770
     24  OG1       -1.5090   62.3510  148.3790 O.3    46  THR46      -0.2211
     25  CG2       -3.3200   62.1460  149.9820 C.3    46  THR46       0.0375
     26  N         -6.9330   60.0540  151.9520 N.3    49  TYR49      -0.1227
     27  CA        -6.7160   58.7260  151.4290 C.3    49  TYR49       0.1736
     28  C         -7.8320   57.8560  151.9820 C.2    49  TYR49       0.2595
     29  O         -8.3300   58.0940  153.0850 O.2    49  TYR49      -0.2718
     30  CB        -5.3440   58.1800  151.8150 C.3    49  TYR49       0.0548
     31  CG        -5.0940   57.9940  153.2850 C.ar   49  TYR49      -0.0200
     32  CD1       -4.5330   59.0160  154.0500 C.ar   49  TYR49      -0.0009
     33  CD2       -5.3730   56.7750  153.9080 C.ar   49  TYR49      -0.0009
     34  CE1       -4.2470   58.8290  155.4010 C.ar   49  TYR49       0.0417
     35  CE2       -5.0920   56.5760  155.2610 C.ar   49  TYR49       0.0417
     36  CZ        -4.5270   57.6070  155.9970 C.ar   49  TYR49       0.1957
     37  OH        -4.2400   57.4130  157.3270 O.3    49  TYR49      -0.2866
     38  N         -8.2210   56.8560  151.1970 N.am   50  ARG50      -0.1980
     39  CA        -9.3080   55.9370  151.5220 C.3    50  ARG50       0.1597
     40  C        -10.6240   56.6900  151.6770 C.2    50  ARG50       0.2287
     41  O        -11.4060   56.4400  152.5950 O.2    50  ARG50      -0.2864
     42  CB        -9.0360   55.1080  152.7820 C.3    50  ARG50       0.0334
     43  CG        -9.8000   53.7860  152.7140 C.3    50  ARG50       0.0492
     44  CD        -9.6630   52.8900  153.9240 C.3    50  ARG50       0.2205
     45  NE        -9.7630   51.4810  153.5260 N.pl3  50  ARG50      -0.0865
     46  CZ        -9.8650   50.4490  154.3690 C.cat  50  ARG50       0.5346
     47  NH1       -9.8960   50.6480  155.6870 N.pl3  50  ARG50       0.1354
     48  NH2       -9.9030   49.2090  153.8890 N.pl3  50  ARG50       0.1354
     49  N         -9.9600   59.7490  155.0800 N.3    53  ARG53      -0.1231
     50  CA        -8.9920   59.7990  156.1590 C.3    53  ARG53       0.1694
     51  C         -7.9800   60.8900  155.8480 C.2    53  ARG53       0.2592
     52  O         -7.3900   60.9340  154.7620 O.2    53  ARG53      -0.2718
     53  CB        -8.3430   58.4220  156.3520 C.3    53  ARG53       0.0321
     54  CG        -9.3440   57.4610  157.0050 C.3    53  ARG53       0.0489
     55  CD        -8.9610   55.9880  156.9900 C.3    53  ARG53       0.2205
     56  NE        -9.8860   55.2250  157.8360 N.pl3  53  ARG53      -0.0865
     57  CZ       -10.1060   53.9120  157.7430 C.cat  53  ARG53       0.5346
     58  NH1       -9.4720   53.1800  156.8340 N.pl3  53  ARG53       0.1354
     59  NH2      -10.9660   53.3240  158.5650 N.pl3  53  ARG53       0.1354
     60  N         -7.8260   61.7980  156.8060 N.am   54  LEU54      -0.1966
     61  CA        -6.9290   62.9300  156.6700 C.3    54  LEU54       0.1728
     62  C         -5.4670   62.5750  156.7450 C.2    54  LEU54       0.2616
     63  O         -5.0370   61.8430  157.6310 O.2    54  LEU54      -0.2715
     64  CB        -7.2110   63.9690  157.7560 C.3    54  LEU54       0.0311
     65  CG        -8.1240   65.1650  157.5080 C.3    54  LEU54       0.0022
     66  CD1       -8.0480   66.0690  158.7370 C.3    54  LEU54       0.0001
     67  CD2       -7.6870   65.9390  156.2700 C.3    54  LEU54       0.0001
     68  N         -4.7040   63.1140  155.8070 N.am   55  MET55      -0.1963
     69  CA        -3.2690   62.9160  155.7940 C.3    55  MET55       0.1736
     70  C         -2.7580   63.7140  156.9880 C.2    55  MET55       0.2616
     71  O         -3.2150   64.8290  157.2320 O.2    55  MET55      -0.2715
     72  CB        -2.6750   63.4920  154.5100 C.3    55  MET55       0.0427
     73  CG        -2.4990   62.4900  153.3940 C.3    55  MET55       0.0599
     74  SD        -1.1670   61.3590  153.8160 S.3    55  MET55      -0.1393
     75  CE         0.2580   62.3630  153.4430 C.3    55  MET55       0.0692
     76  N         -1.8320   63.1390  157.7440 N.am   56  ILE56      -0.1977
     77  CA        -1.2670   63.8260  158.9020 C.3    56  ILE56       0.1596
     78  C         -0.7140   65.1700  158.4470 C.2    56  ILE56       0.2287
     79  O         -0.0460   65.2570  157.4100 O.2    56  ILE56      -0.2864
     80  CB        -0.1140   63.0180  159.5280 C.3    56  ILE56       0.0276
     81  CG1        0.5760   63.8410  160.6170 C.3    56  ILE56       0.0022
     82  CG2        0.8880   62.6310  158.4460 C.3    56  ILE56       0.0022
     83  CD1        1.8320   63.1930  161.1490 C.3    56  ILE56       0.0001
     84  N         -7.9220   60.2700  142.8300 N.3    89  LEU89      -0.1245
     85  CA        -7.2380   59.0970  142.2820 C.3    89  LEU89       0.1561
     86  C         -7.8570   57.8260  142.8100 C.2    89  LEU89       0.2260
     87  O         -8.0390   57.6800  144.0240 O.2    89  LEU89      -0.2867
     88  CB        -5.7520   59.0980  142.6780 C.3    89  LEU89       0.0270
     89  CG        -4.9710   57.7800  142.5190 C.3    89  LEU89       0.0019
     90  CD1       -4.8130   57.4170  141.0340 C.3    89  LEU89       0.0001
     91  CD2       -3.5990   57.9320  143.1750 C.3    89  LEU89       0.0001
     92  N         -7.4680   53.7910  143.3450 N.3    91  TYR91      -0.1241
     93  CA        -6.4510   52.7410  143.3360 C.3    91  TYR91       0.1605
     94  C         -7.0580   51.4110  143.7940 C.2    91  TYR91       0.2264
     95  O         -6.4230   50.5970  144.4570 O.2    91  TYR91      -0.2867
     96  CB        -5.2540   53.1280  144.2070 C.3    91  TYR91       0.0534
     97  CG        -5.6170   53.5290  145.6090 C.ar   91  TYR91      -0.0201
     98  CD1       -6.1660   54.7930  145.8810 C.ar   91  TYR91      -0.0009
     99  CD2       -5.4360   52.6400  146.6710 C.ar   91  TYR91      -0.0009
    100  CE1       -6.5300   55.1560  147.1880 C.ar   91  TYR91       0.0417
    101  CE2       -5.7910   52.9910  147.9690 C.ar   91  TYR91       0.0417
    102  CZ        -6.3370   54.2480  148.2200 C.ar   91  TYR91       0.1957
    103  OH        -6.6780   54.5750  149.5100 O.3    91  TYR91      -0.2866
    104  N         -6.0870   48.2260  138.8870 N.3    94  PHE94      -0.1241
    105  CA        -5.1860   48.7020  137.8420 C.3    94  PHE94       0.1605
    106  C         -5.9400   48.7410  136.5250 C.2    94  PHE94       0.2264
    107  O         -6.7990   47.8980  136.2670 O.2    94  PHE94      -0.2867
    108  CB        -3.9640   47.7870  137.6950 C.3    94  PHE94       0.0534
    109  CG        -3.1420   47.6720  138.9460 C.ar   94  PHE94      -0.0203
    110  CD1       -2.6420   48.8060  139.5710 C.ar   94  PHE94      -0.0042
    111  CD2       -2.9010   46.4320  139.5220 C.ar   94  PHE94      -0.0042
    112  CE1       -1.9120   48.7080  140.7660 C.ar   94  PHE94      -0.0003
    113  CE2       -2.1780   46.3250  140.7080 C.ar   94  PHE94      -0.0003
    114  CZ        -1.6830   47.4660  141.3320 C.ar   94  PHE94      -0.0000
@<TRIPOS>BOND
     1   107   106    2
     2   106   105    1
     3   108   105    1
     4   108   109    1
     5   105   104    1
     6   109   111   ar
     7   109   110   ar
     8   111   113   ar
     9   110   112   ar
    10   113   114   ar
    11   112   114   ar
    12    90    89    1
    13    85    88    1
    14    85    86    1
    15    85    84    1
    16    89    88    1
    17    89    91    1
    18    86    87    2
    19    93    92    1
    20    93    94    1
    21    93    96    1
    22    94    95    2
    23    96    97    1
    24     4     3    2
    25    15    14    2
    26    97    98   ar
    27    97    99   ar
    28    98   100   ar
    29    17    16    1
    30     3     2    1
    31    99   101   ar
    32    12    13    1
    33    14    13    1
    34     5     2    1
    35     5     6    1
    36   100   102   ar
    37    16    18    1
    38    16    13    1
    39     2     1    1
    40     8     6   ar
    41     8    10   ar
    42     6     7   ar
    43   101   102   ar
    44   102   103    1
    45    24    23    1
    46    19    20    1
    47    10    11   ar
    48     7     9   ar
    49    20    23    1
    50    20    21    1
    51    23    25    1
    52    11     9   ar
    53    21    22    2
    54    38    39    1
    55    38    28   am
    56    27    30    1
    57    27    26    1
    58    27    28    1
    59    39    40    1
    60    39    42    1
    61    40    41    2
    62    30    31    1
    63    28    29    2
    64    43    42    1
    65    43    44    1
    66    31    33   ar
    67    31    32   ar
    68    73    74    1
    69    73    72    1
    70    75    74    1
    71    45    44    1
    72    45    46    2
    73    48    46    1
    74    33    35   ar
    75    32    34   ar
    76    46    47    1
    77    72    69    1
    78    52    51    2
    79    49    50    1
    80    35    36   ar
    81    34    36   ar
    82    69    68    1
    83    69    70    1
    84    68    62   am
    85    51    50    1
    86    51    60   am
    87    36    37    1
    88    50    53    1
    89    67    65    1
    90    53    54    1
    91    61    62    1
    92    61    60    1
    93    61    64    1
    94    62    63    2
    95    58    57    1
    96    70    71    2
    97    70    76   am
    98    55    54    1
    99    55    56    1
   100    79    78    2
   101    65    64    1
   102    65    66    1
   103    57    56    2
   104    57    59    1
   105    76    77    1
   106    82    80    1
   107    78    77    1
   108    77    80    1
   109    80    81    1
   110    81    83    1
