@<TRIPOS>MOLECULE
tmp/1hi6B00.pdb
 131 128 0 0 0
SMALL
GASTEIGER

@<TRIPOS>ATOM
      1  N          8.7920   60.2970  156.8220 N.3     2  ASP2       -0.1239
      2  CA         8.1080   59.6920  155.6740 C.3     2  ASP2        0.1674
      3  C          8.3000   60.5880  154.4420 C.2     2  ASP2        0.2266
      4  O          7.7470   61.6870  154.3820 O.2     2  ASP2       -0.2867
      5  CB         6.6220   59.5510  156.0020 C.3     2  ASP2        0.1410
      6  CG         6.0730   60.7590  156.7570 C.2     2  ASP2        0.3668
      7  OD1        6.1690   61.8870  156.2260 O.co2   2  ASP2       -0.2456
      8  OD2        5.5440   60.5820  157.8830 O.co2   2  ASP2       -0.2456
      9  N          7.3170   47.5490  152.4480 N.3    31  ASP31      -0.1225
     10  CA         5.9370   47.3700  152.8600 C.3    31  ASP31       0.1805
     11  C          4.9120   48.0880  151.9820 C.2    31  ASP31       0.2598
     12  O          3.7240   47.7710  152.0420 O.2    31  ASP31      -0.2718
     13  CB         5.7440   47.8110  154.3090 C.3    31  ASP31       0.1424
     14  CG         6.2860   46.8030  155.2980 C.2    31  ASP31       0.3668
     15  OD1        6.1720   45.5850  155.0290 O.co2  31  ASP31      -0.2456
     16  OD2        6.8080   47.2260  156.3530 O.co2  31  ASP31      -0.2456
     17  N          5.3550   49.0490  151.1740 N.am   32  TYR32      -0.1962
     18  CA         4.4250   49.7830  150.3200 C.3    32  TYR32       0.1771
     19  C          4.8390   49.7930  148.8590 C.2    32  TYR32       0.2619
     20  O          6.0270   49.7520  148.5280 O.2    32  TYR32      -0.2715
     21  CB         4.2820   51.2400  150.7850 C.3    32  TYR32       0.0574
     22  CG         3.9360   51.4180  152.2450 C.ar   32  TYR32      -0.0198
     23  CD1        4.8930   51.2030  153.2340 C.ar   32  TYR32      -0.0009
     24  CD2        2.6510   51.7990  152.6420 C.ar   32  TYR32      -0.0009
     25  CE1        4.5880   51.3590  154.5870 C.ar   32  TYR32       0.0417
     26  CE2        2.3320   51.9620  153.9980 C.ar   32  TYR32       0.0417
     27  CZ         3.3130   51.7370  154.9630 C.ar   32  TYR32       0.1957
     28  OH         3.0370   51.8830  156.3010 O.3    32  TYR32      -0.2866
     29  N          3.8430   49.8630  147.9850 N.am   33  GLU33      -0.1977
     30  CA         4.0970   49.9120  146.5580 C.3    33  GLU33       0.1602
     31  C          4.5540   51.3280  146.2330 C.2    33  GLU33       0.2287
     32  O          4.2320   52.2890  146.9460 O.2    33  GLU33      -0.2864
     33  CB         2.8180   49.6130  145.7620 C.3    33  GLU33       0.0415
     34  CG         1.9800   48.4420  146.2870 C.3    33  GLU33       0.1163
     35  CD         0.7390   48.1860  145.4440 C.2    33  GLU33       0.3649
     36  OE1        0.2750   49.1300  144.7680 O.co2  33  GLU33      -0.2457
     37  OE2        0.2130   47.0470  145.4680 O.co2  33  GLU33      -0.2457
     38  N          4.5810   53.8490  142.9260 N.3    35  HIS35      -0.1241
     39  CA         4.0920   54.0170  141.5670 C.3    35  HIS35       0.1621
     40  C          4.6870   55.2400  140.9080 C.2    35  HIS35       0.2264
     41  O          5.0850   56.1890  141.5760 O.2    35  HIS35      -0.2867
     42  CB         2.5670   54.1200  141.5680 C.3    35  HIS35       0.0745
     43  CG         1.8840   52.8640  142.0120 C.ar   35  HIS35       0.0817
     44  ND1        1.2890   51.9880  141.1290 N.ar   35  HIS35      -0.2268
     45  CD2        1.7210   52.3230  143.2450 C.ar   35  HIS35       0.1154
     46  CE1        0.7850   50.9660  141.7980 C.ar   35  HIS35       0.1986
     47  NE2        1.0330   51.1450  143.0830 N.ar   35  HIS35      -0.2212
     48  N          3.5930   50.4210  138.7010 N.3    50  GLY50      -0.1210
     49  CA         4.0490   50.3260  140.0760 C.3    50  GLY50       0.1956
     50  C          4.9060   49.1020  140.3590 C.2    50  GLY50       0.2612
     51  O          4.9860   48.1750  139.5500 O.2    50  GLY50      -0.2717
     52  N          5.5470   49.0930  141.5240 N.am   51  ILE51      -0.1965
     53  CA         6.4040   47.9850  141.9150 C.3    51  ILE51       0.1727
     54  C          6.3430   47.7860  143.4350 C.2    51  ILE51       0.2616
     55  O          6.2350   48.7510  144.1950 O.2    51  ILE51      -0.2715
     56  CB         7.8740   48.2680  141.4630 C.3    51  ILE51       0.0290
     57  CG1        8.7210   46.9930  141.5080 C.3    51  ILE51       0.0022
     58  CG2        8.5010   49.3410  142.3460 C.3    51  ILE51       0.0023
     59  CD1        9.1470   46.5740  142.8850 C.3    51  ILE51       0.0001
     60  N          6.3680   46.5310  143.8760 N.am   52  HIS52      -0.1973
     61  CA         6.3690   46.2430  145.3060 C.3    52  HIS52       0.1656
     62  C          7.7920   45.8130  145.6310 C.2    52  HIS52       0.2291
     63  O          8.2260   44.7380  145.2310 O.2    52  HIS52      -0.2864
     64  CB         5.4030   45.1120  145.6470 C.3    52  HIS52       0.0771
     65  CG         5.1500   44.9670  147.1150 C.ar   52  HIS52       0.0820
     66  ND1        6.1440   44.6350  148.0110 N.ar   52  HIS52      -0.2267
     67  CD2        4.0350   45.1800  147.8540 C.ar   52  HIS52       0.1154
     68  CE1        5.6540   44.6580  149.2390 C.ar   52  HIS52       0.1986
     69  NE2        4.3770   44.9870  149.1700 N.ar   52  HIS52      -0.2212
     70  N          8.1370   42.2850  147.2550 N.3    55  SER55      -0.1217
     71  CA         7.9360   41.0900  146.4420 C.3    55  SER55       0.1889
     72  C          8.4100   41.2390  145.0040 C.2    55  SER55       0.2288
     73  O          8.2570   40.3120  144.2070 O.2    55  SER55      -0.2866
     74  CB         6.4560   40.7170  146.4150 C.3    55  SER55       0.2089
     75  OG         5.7540   41.5370  145.4960 O.3    55  SER55      -0.2183
     76  N          7.0690   42.5590  142.8160 N.3    57  GLY57      -0.1210
     77  CA         5.9190   42.5430  141.9300 C.3    57  GLY57       0.1956
     78  C          5.7430   43.8910  141.2470 C.2    57  GLY57       0.2613
     79  O          5.9940   44.9450  141.8450 O.2    57  GLY57      -0.2717
     80  N          5.3190   43.8570  139.9880 N.am   58  THR58      -0.1938
     81  CA         5.1160   45.0730  139.2180 C.3    58  THR58       0.2028
     82  C          3.8380   44.9950  138.4050 C.2    58  THR58       0.2642
     83  O          3.3090   43.9170  138.1580 O.2    58  THR58      -0.2714
     84  CB         6.2680   45.3100  138.2370 C.3    58  THR58       0.1808
     85  OG1        6.2330   44.3070  137.2140 O.3    58  THR58      -0.2208
     86  CG2        7.6010   45.2540  138.9580 C.3    58  THR58       0.0379
     87  N          3.3460   46.1550  137.9940 N.am   59  ALA59      -0.1977
     88  CA         2.1400   46.2490  137.1780 C.3    59  ALA59       0.1597
     89  C          2.3270   47.4950  136.3270 C.2    59  ALA59       0.2287
     90  O          2.6940   48.5500  136.8460 O.2    59  ALA59      -0.2864
     91  CB         0.8940   46.3860  138.0650 C.3    59  ALA59       0.0319
     92  N          3.6570   56.9350  146.7230 N.3    98  ARG98      -0.1231
     93  CA         3.2960   55.8050  147.5580 C.3    98  ARG98       0.1694
     94  C          1.7820   55.8840  147.6740 C.2    98  ARG98       0.2592
     95  O          1.1570   55.1580  148.4520 O.2    98  ARG98      -0.2718
     96  CB         3.9450   55.9390  148.9300 C.3    98  ARG98       0.0321
     97  CG         3.7910   54.7120  149.7890 C.3    98  ARG98       0.0489
     98  CD         3.1640   55.0670  151.1180 C.3    98  ARG98       0.2205
     99  NE         4.1320   55.0330  152.2020 N.pl3  98  ARG98      -0.0865
    100  CZ         3.8520   55.3720  153.4550 C.cat  98  ARG98       0.5346
    101  NH1        2.6330   55.7790  153.7850 N.pl3  98  ARG98       0.1354
    102  NH2        4.7920   55.2920  154.3830 N.pl3  98  ARG98       0.1354
    103  N          1.2140   56.7750  146.8610 N.am   99  LYS99      -0.1966
    104  CA        -0.2210   57.0460  146.7960 C.3    99  LYS99       0.1728
    105  C         -0.6300   58.1050  147.8110 C.2    99  LYS99       0.2616
    106  O         -1.6180   58.8220  147.6040 O.2    99  LYS99      -0.2715
    107  CB        -1.0310   55.7650  146.9630 C.3    99  LYS99       0.0311
    108  CG        -0.9040   54.8610  145.7540 C.3    99  LYS99       0.0038
    109  CD        -1.6540   53.5720  145.9490 C.3    99  LYS99       0.0206
    110  CE        -1.0270   52.4800  145.1230 C.3    99  LYS99       0.1093
    111  NZ        -1.5450   51.1570  145.5400 N.3    99  LYS99      -0.1314
    112  N          0.0950   58.1990  148.9210 N.am  100  ASP100     -0.1957
    113  CA        -0.1980   59.2820  149.8370 C.3   100  ASP100      0.1840
    114  C          0.9080   60.3000  149.6190 C.2   100  ASP100      0.2622
    115  O          0.6370   61.4450  149.2690 O.2   100  ASP100     -0.2715
    116  CB        -0.2850   58.8570  151.3150 C.3   100  ASP100      0.1450
    117  CG         0.7020   57.7870  151.7070 C.2   100  ASP100      0.3671
    118  OD1        1.5870   57.4080  150.9050 O.co2 100  ASP100     -0.2456
    119  OD2        0.5730   57.3290  152.8640 O.co2 100  ASP100     -0.2456
    120  N          2.1560   59.8720  149.7730 N.am  101  TYR101     -0.1974
    121  CA         3.2880   60.7660  149.5720 C.3   101  TYR101      0.1639
    122  C          3.6560   60.8090  148.0950 C.2   101  TYR101      0.2290
    123  O          3.4950   59.8170  147.3740 O.2   101  TYR101     -0.2864
    124  CB         4.5030   60.2880  150.3600 C.3   101  TYR101      0.0560
    125  CG         4.2730   60.1020  151.8410 C.ar  101  TYR101     -0.0198
    126  CD1        3.9480   61.1830  152.6580 C.ar  101  TYR101     -0.0009
    127  CD2        4.3930   58.8410  152.4300 C.ar  101  TYR101     -0.0009
    128  CE1        3.7490   61.0180  154.0240 C.ar  101  TYR101      0.0417
    129  CE2        4.1990   58.6630  153.7940 C.ar  101  TYR101      0.0417
    130  CZ         3.8770   59.7560  154.5880 C.ar  101  TYR101      0.1957
    131  OH         3.6970   59.5930  155.9540 O.3   101  TYR101     -0.2866
@<TRIPOS>BOND
     1    89    90    2
     2    89    88    1
     3    88    87    1
     4    88    91    1
     5    85    84    1
     6    87    82   am
     7    83    82    2
     8    84    86    1
     9    84    81    1
    10    82    81    1
    11    48    49    1
    12    81    80    1
    13    51    50    2
    14    80    78   am
    15    49    50    1
    16    50    52   am
    17    40    39    1
    18    40    41    2
    19    44    46   ar
    20    44    43   ar
    21    78    79    2
    22    78    77    1
    23    56    57    1
    24    56    53    1
    25    56    58    1
    26    57    59    1
    27    52    53    1
    28    39    42    1
    29    39    38    1
    30    42    43    1
    31    46    47   ar
    32    53    54    1
    33    77    76    1
    34    43    45   ar
    35    47    45   ar
    36    54    60   am
    37    54    55    2
    38    60    61    1
    39    73    72    2
    40    36    35   ar
    41    72    71    1
    42   110   111    1
    43   110   109    1
    44    63    62    2
    45    61    62    1
    46    61    64    1
    47    35    37   ar
    48    35    34    1
    49    75    74    1
    50    64    65    1
    51   108   109    1
    52   108   107    1
    53    33    34    1
    54    33    30    1
    55    31    30    1
    56    31    32    2
    57    74    71    1
    58    71    70    1
    59    30    29    1
    60    92    93    1
    61   104   103    1
    62   104   107    1
    63   104   105    1
    64   103    94   am
    65    65    67   ar
    66    65    66   ar
    67   123   122    2
    68    93    94    1
    69    93    96    1
    70   106   105    2
    71    94    95    2
    72   105   112   am
    73    67    69   ar
    74    29    19   am
    75    66    68   ar
    76   122   121    1
    77    20    19    2
    78    19    18    1
    79   112   113    1
    80    96    97    1
    81    69    68   ar
    82   115   114    2
    83   121   120    1
    84   121   124    1
    85   114   120   am
    86   114   113    1
    87    97    98    1
    88   113   116    1
    89    18    21    1
    90    18    17    1
    91   124   125    1
    92    21    22    1
    93   118   117   ar
    94    98    99    1
    95    17    11   am
    96   116   117    1
    97   117   119   ar
    98   125   127   ar
    99   125   126   ar
   100    11    12    2
   101    11    10    1
   102    99   100    2
   103    22    24   ar
   104    22    23   ar
   105   127   129   ar
   106     9    10    1
   107    24    26   ar
   108   126   128   ar
   109    10    13    1
   110    23    25   ar
   111   100   101    1
   112   100   102    1
   113   129   130   ar
   114    26    27   ar
   115   128   130   ar
   116    13    14    1
   117     4     3    2
   118     3     2    1
   119    25    27   ar
   120   130   131    1
   121    27    28    1
   122    15    14   ar
   123    14    16   ar
   124     2     5    1
   125     2     1    1
   126     5     6    1
   127     7     6   ar
   128     6     8   ar
