@<TRIPOS>MOLECULE
tmp/1hihA00.pdb
 105 98 0 0 0
SMALL
GASTEIGER

@<TRIPOS>ATOM
      1  N          4.0950   -5.2150   27.6700 N.3     8  ARG8       -0.1245
      2  CA         3.4630   -4.4960   26.5900 C.3     8  ARG8        0.1563
      3  C          2.3830   -3.5840   27.2020 C.2     8  ARG8        0.2260
      4  O          1.6750   -3.9490   28.1560 O.2     8  ARG8       -0.2867
      5  CB         2.8520   -5.4670   25.5780 C.3     8  ARG8        0.0307
      6  CG         3.8560   -6.1440   24.6890 C.3     8  ARG8        0.0489
      7  CD         3.1310   -6.9370   23.6020 C.3     8  ARG8        0.2205
      8  NE         4.0600   -7.5060   22.6290 N.pl3   8  ARG8       -0.0865
      9  CZ         3.6880   -8.1920   21.5470 C.cat   8  ARG8        0.5346
     10  NH1        2.3970   -8.3990   21.3140 N.pl3   8  ARG8        0.1354
     11  NH2        4.5990   -8.6360   20.6690 N.pl3   8  ARG8        0.1354
     12  N         -2.8790   -2.1520   22.2170 N.3    23  LEU23      -0.1245
     13  CA        -1.5560   -1.6850   22.5660 C.3    23  LEU23       0.1561
     14  C         -1.4270   -0.1640   22.3180 C.2    23  LEU23       0.2260
     15  O         -1.8370    0.3130   21.2570 O.2    23  LEU23      -0.2867
     16  CB        -0.5960   -2.4850   21.6610 C.3    23  LEU23       0.0270
     17  CG         0.9190   -2.3980   21.7130 C.3    23  LEU23       0.0019
     18  CD1        1.4030   -3.1340   22.9310 C.3    23  LEU23       0.0001
     19  CD2        1.4530   -3.0830   20.4970 C.3    23  LEU23       0.0001
     20  N          0.6090    2.4230   21.1270 N.3    25  ASP25      -0.1239
     21  CA         1.7690    2.3370   20.2650 C.3    25  ASP25       0.1674
     22  C          2.2370    3.6730   19.7010 C.2    25  ASP25       0.2266
     23  O          1.6520    4.1710   18.7520 O.2    25  ASP25      -0.2867
     24  CB         1.3400    1.3720   19.1450 C.3    25  ASP25       0.1410
     25  CG         2.4620    0.9820   18.1980 C.2    25  ASP25       0.3668
     26  OD1        3.6190    1.3840   18.3710 O.co2  25  ASP25      -0.2456
     27  OD2        2.1590    0.2680   17.2410 O.co2  25  ASP25      -0.2456
     28  N          4.8070    4.1230   18.0270 N.3    27  GLY27      -0.1210
     29  CA         5.4890    3.8400   16.7720 C.3    27  GLY27       0.1956
     30  C          4.4900    3.6580   15.6400 C.2    27  GLY27       0.2612
     31  O          4.8690    3.3300   14.5090 O.2    27  GLY27      -0.2717
     32  N          3.2080    3.8780   15.9230 N.am   28  ALA28      -0.1965
     33  CA         2.1950    3.7570   14.8820 C.3    28  ALA28       0.1728
     34  C          1.5500    5.1000   14.5790 C.2    28  ALA28       0.2616
     35  O          1.0930    5.8020   15.5170 O.2    28  ALA28      -0.2715
     36  CB         1.1150    2.7720   15.2950 C.3    28  ALA28       0.0334
     37  N          1.4730    5.4530   13.2840 N.am   29  ASP29      -0.1957
     38  CA         0.8160    6.7100   12.8860 C.3    29  ASP29       0.1840
     39  C         -0.7190    6.5380   12.9610 C.2    29  ASP29       0.2622
     40  O         -1.4420    7.4800   13.2920 O.2    29  ASP29      -0.2715
     41  CB         1.1570    7.1070   11.4510 C.3    29  ASP29       0.1450
     42  CG         2.6190    7.3540   11.2310 C.2    29  ASP29       0.3671
     43  OD1        3.3720    7.6390   12.1740 O.co2  29  ASP29      -0.2456
     44  OD2        3.0270    7.2280   10.0760 O.co2  29  ASP29      -0.2456
     45  N         -1.1980    5.3280   12.6770 N.am   30  ASP30      -0.1971
     46  CA        -2.6190    5.0390   12.6800 C.3    30  ASP30       0.1709
     47  C         -3.0390    4.0010   13.6970 C.2    30  ASP30       0.2293
     48  O         -2.2220    3.2750   14.2460 O.2    30  ASP30      -0.2864
     49  CB        -3.0280    4.5610   11.2900 C.3    30  ASP30       0.1436
     50  CG        -2.6150    5.5500   10.1990 C.2    30  ASP30       0.3671
     51  OD1       -2.9610    6.7380   10.3140 O.co2  30  ASP30      -0.2456
     52  OD2       -1.8990    5.1510    9.2630 O.co2  30  ASP30      -0.2456
     53  N         -5.0840    0.6350   14.2420 N.3    32  VAL32      -0.1245
     54  CA        -5.5160   -0.5560   13.5260 C.3    32  VAL32       0.1561
     55  C         -6.0660   -1.6100   14.4800 C.2    32  VAL32       0.2260
     56  O         -5.3930   -2.0450   15.3890 O.2    32  VAL32      -0.2867
     57  CB        -4.3530   -1.2130   12.7260 C.3    32  VAL32       0.0252
     58  CG1       -4.9240   -2.1050   11.6480 C.3    32  VAL32       0.0019
     59  CG2       -3.5000   -0.1620   12.0930 C.3    32  VAL32       0.0019
     60  N         -1.8100   -0.0400    4.4890 N.3    47  ILE47      -0.1231
     61  CA        -0.8830    0.5910    5.4310 C.3    47  ILE47       0.1692
     62  C          0.3180   -0.3550    5.5520 C.2    47  ILE47       0.2593
     63  O          0.1820   -1.5840    5.3790 O.2    47  ILE47      -0.2718
     64  CB        -1.5320    0.8830    6.8470 C.3    47  ILE47       0.0266
     65  CG1       -2.2380   -0.3600    7.4060 C.3    47  ILE47       0.0019
     66  CG2       -2.5030    2.0810    6.7740 C.3    47  ILE47       0.0020
     67  CD1       -1.4600   -1.0580    8.4720 C.3    47  ILE47       0.0001
     68  N          1.4920    0.1960    5.8210 N.am   48  GLY48      -0.1942
     69  CA         2.6490   -0.6620    5.9310 C.3    48  GLY48       0.2014
     70  C          3.3840   -0.5550    7.2370 C.2    48  GLY48       0.2639
     71  O          3.1450    0.3750    8.0110 O.2    48  GLY48      -0.2714
     72  N          4.2830   -1.5020    7.4620 N.am   49  GLY49      -0.1939
     73  CA         5.0690   -1.5350    8.6720 C.3    49  GLY49       0.2014
     74  C          6.1590   -2.5470    8.4060 C.2    49  GLY49       0.2638
     75  O          6.4940   -2.7760    7.2450 O.2    49  GLY49      -0.2714
     76  N          6.7240   -3.1420    9.4530 N.am   50  ILE50      -0.1977
     77  CA         7.7620   -4.1590    9.3010 C.3    50  ILE50       0.1596
     78  C          7.1160   -5.3990    8.6640 C.2    50  ILE50       0.2287
     79  O          6.0070   -5.8260    9.0490 O.2    50  ILE50      -0.2864
     80  CB         8.3860   -4.5600   10.7010 C.3    50  ILE50       0.0276
     81  CG1        9.1700   -3.3910   11.3110 C.3    50  ILE50       0.0022
     82  CG2        9.3150   -5.7350   10.5550 C.3    50  ILE50       0.0022
     83  CD1       10.4210   -3.0030   10.5270 C.3    50  ILE50       0.0001
     84  N         -1.7680   -8.2810   13.6710 N.3    81  PRO81      -0.2102
     85  CA        -1.6090   -9.3270   14.6960 C.3    81  PRO81       0.1504
     86  C         -2.1040   -8.9130   16.0870 C.2    81  PRO81       0.2575
     87  O         -2.4750   -9.7700   16.8750 O.2    81  PRO81      -0.2718
     88  CB        -0.1070   -9.6490   14.6550 C.3    81  PRO81       0.0282
     89  CG         0.5190   -8.4490   14.0060 C.3    81  PRO81       0.0208
     90  CD        -0.4860   -7.9810   12.9930 C.3    81  PRO81       0.0893
     91  N         -2.1760   -7.6100   16.3620 N.am   82  VAL82      -0.1980
     92  CA        -2.6410   -7.0990   17.6710 C.3    82  VAL82       0.1595
     93  C         -3.4320   -5.7870   17.4870 C.2    82  VAL82       0.2287
     94  O         -3.2230   -5.1040   16.4900 O.2    82  VAL82      -0.2864
     95  CB        -1.4230   -6.8800   18.6750 C.3    82  VAL82       0.0276
     96  CG1       -0.3840   -5.9680   18.0860 C.3    82  VAL82       0.0022
     97  CG2       -1.8870   -6.2790   19.9810 C.3    82  VAL82       0.0022
     98  N         -4.0690   -2.0780   17.8060 N.3    84  ILE84      -0.1245
     99  CA        -3.1090   -0.9840   17.9820 C.3    84  ILE84       0.1561
    100  C         -3.7490    0.4000   18.0740 C.2    84  ILE84       0.2260
    101  O         -4.6220    0.7390   17.2740 O.2    84  ILE84      -0.2867
    102  CB        -2.1340   -0.9980   16.7600 C.3    84  ILE84       0.0252
    103  CG1       -1.2040   -2.2250   16.8520 C.3    84  ILE84       0.0019
    104  CG2       -1.3720    0.3490   16.6190 C.3    84  ILE84       0.0019
    105  CD1       -0.5890   -2.6140   15.5280 C.3    84  ILE84       0.0001
@<TRIPOS>BOND
     1    60    61    1
     2    63    62    2
     3    61    62    1
     4    61    64    1
     5    62    68   am
     6    68    69    1
     7    69    70    1
     8    66    64    1
     9    64    65    1
    10    70    72   am
    11    70    71    2
    12    75    74    2
    13    65    67    1
    14    72    73    1
    15    74    73    1
    16    74    76   am
    17    78    79    2
    18    78    77    1
    19    52    50   ar
    20    77    76    1
    21    77    80    1
    22    44    42   ar
    23    50    51   ar
    24    50    49    1
    25    83    81    1
    26    82    80    1
    27    80    81    1
    28    42    41    1
    29    42    43   ar
    30    49    46    1
    31    41    38    1
    32    58    57    1
    33    59    57    1
    34    45    46    1
    35    45    39   am
    36    46    47    1
    37    57    54    1
    38    38    39    1
    39    38    37    1
    40    39    40    2
    41    90    84    1
    42    90    89    1
    43    37    34   am
    44    54    53    1
    45    54    55    1
    46    84    85    1
    47    47    48    2
    48    89    88    1
    49    55    56    2
    50    31    30    2
    51    34    33    1
    52    34    35    2
    53    88    85    1
    54    85    86    1
    55    33    36    1
    56    33    32    1
    57   105   103    1
    58    30    32   am
    59    30    29    1
    60    86    91   am
    61    86    87    2
    62    91    92    1
    63    94    93    2
    64   104   102    1
    65   102   103    1
    66   102    99    1
    67    29    28    1
    68    27    25   ar
    69   101   100    2
    70    93    92    1
    71    92    95    1
    72    98    99    1
    73    99   100    1
    74    96    95    1
    75    25    26   ar
    76    25    24    1
    77    95    97    1
    78    23    22    2
    79    24    21    1
    80    22    21    1
    81    21    20    1
    82    19    17    1
    83    11     9    1
    84    15    14    2
    85    10     9    1
    86     9     8    2
    87    16    17    1
    88    16    13    1
    89    17    18    1
    90    12    13    1
    91    14    13    1
    92     8     7    1
    93     7     6    1
    94     6     5    1
    95     5     2    1
    96     2     3    1
    97     2     1    1
    98     3     4    2
