@<TRIPOS>MOLECULE
tmp/1hiiB00.pdb
 113 106 0 0 0
SMALL
GASTEIGER

@<TRIPOS>ATOM
      1  N         16.7790   17.0220   13.5890 N.3     8  ARG8       -0.1245
      2  CA        16.8970   18.2750   14.3290 C.3     8  ARG8        0.1563
      3  C         17.5940   17.9680   15.6740 C.2     8  ARG8        0.2260
      4  O         17.2440   16.9820   16.3360 O.2     8  ARG8       -0.2867
      5  CB        15.5190   18.8330   14.6420 C.3     8  ARG8        0.0307
      6  CG        14.7730   19.3460   13.4410 C.3     8  ARG8        0.0489
      7  CD        13.5060   20.0540   13.8390 C.3     8  ARG8        0.2205
      8  NE        12.8200   20.6250   12.6840 N.pl3   8  ARG8       -0.0865
      9  CZ        11.5990   21.1530   12.7060 C.cat   8  ARG8        0.5346
     10  NH1       10.9000   21.1780   13.8300 N.pl3   8  ARG8        0.1354
     11  NH2       11.1090   21.7480   11.6230 N.pl3   8  ARG8        0.1354
     12  N         15.4790   23.1120   20.7150 N.3    23  LEU23      -0.1245
     13  CA        16.2580   22.9340   19.5050 C.3    23  LEU23       0.1561
     14  C         17.6160   23.6530   19.6850 C.2    23  LEU23       0.2260
     15  O         17.6300   24.8440   19.9930 O.2    23  LEU23      -0.2867
     16  CB        15.4820   23.5800   18.3410 C.3    23  LEU23       0.0270
     17  CG        16.1350   23.7390   16.9570 C.3    23  LEU23       0.0019
     18  CD1       16.5500   22.3840   16.4220 C.3    23  LEU23       0.0001
     19  CD2       15.1800   24.4110   16.0020 C.3    23  LEU23       0.0001
     20  N         20.4610   25.6320   18.4510 N.3    25  ASP25      -0.1239
     21  CA        20.4920   26.4530   17.2720 C.3    25  ASP25       0.1674
     22  C         21.6390   27.4450   17.0960 C.2    25  ASP25       0.2266
     23  O         21.5990   28.5800   17.6200 O.2    25  ASP25      -0.2867
     24  CB        19.1330   27.1570   17.2940 C.3    25  ASP25       0.1410
     25  CG        18.8600   27.9910   16.0780 C.2    25  ASP25       0.3668
     26  OD1       19.6840   28.0520   15.1560 O.co2  25  ASP25      -0.2456
     27  OD2       17.7870   28.6130   16.0670 O.co2  25  ASP25      -0.2456
     28  N         22.1700   29.1340   14.5190 N.3    27  GLY27      -0.1210
     29  CA        21.7170   30.2720   13.7250 C.3    27  GLY27       0.1956
     30  C         20.9530   31.2570   14.5800 C.2    27  GLY27       0.2612
     31  O         20.3970   32.2270   14.0580 O.2    27  GLY27      -0.2717
     32  N         20.9290   31.0210   15.8930 N.am   28  ALA28      -0.1965
     33  CA        20.2100   31.9110   16.7960 C.3    28  ALA28       0.1728
     34  C         21.1380   32.6590   17.7550 C.2    28  ALA28       0.2616
     35  O         22.0240   32.0610   18.3690 O.2    28  ALA28      -0.2715
     36  CB        19.1780   31.1140   17.5830 C.3    28  ALA28       0.0334
     37  N         20.9510   33.9650   17.8920 N.am   29  ASP29      -0.1957
     38  CA        21.8030   34.7240   18.8120 C.3    29  ASP29       0.1840
     39  C         21.3420   34.5420   20.2520 C.2    29  ASP29       0.2622
     40  O         22.1580   34.4510   21.1700 O.2    29  ASP29      -0.2715
     41  CB        21.7560   36.2130   18.4900 C.3    29  ASP29       0.1450
     42  CG        22.3200   36.5530   17.1140 C.2    29  ASP29       0.3671
     43  OD1       23.1690   35.8180   16.5590 O.co2  29  ASP29      -0.2456
     44  OD2       21.9310   37.6090   16.6030 O.co2  29  ASP29      -0.2456
     45  N         20.0220   34.4630   20.4220 N.am   30  ASP30      -0.1971
     46  CA        19.3530   34.3450   21.7310 C.3    30  ASP30       0.1709
     47  C         18.6070   33.0300   21.8630 C.2    30  ASP30       0.2293
     48  O         18.4350   32.3000   20.8930 O.2    30  ASP30      -0.2864
     49  CB        18.2990   35.4580   21.8720 C.3    30  ASP30       0.1436
     50  CG        18.8450   36.8170   21.5190 C.2    30  ASP30       0.3671
     51  OD1       19.8400   37.2370   22.1430 O.co2  30  ASP30      -0.2456
     52  OD2       18.3040   37.4440   20.5960 O.co2  30  ASP30      -0.2456
     53  N         14.9120   31.3720   23.0920 N.3    32  ILE32      -0.1245
     54  CA        13.5260   31.7370   23.2630 C.3    32  ILE32       0.1561
     55  C         12.7310   30.4770   23.5640 C.2    32  ILE32       0.2260
     56  O         12.7440   29.5300   22.7930 O.2    32  ILE32      -0.2867
     57  CB        12.9880   32.4180   21.9900 C.3    32  ILE32       0.0252
     58  CG1       13.9620   33.5050   21.5590 C.3    32  ILE32       0.0019
     59  CG2       11.5930   33.0250   22.2340 C.3    32  ILE32       0.0019
     60  CD1       13.5060   34.2570   20.3570 C.3    32  ILE32       0.0001
     61  N         12.5950   40.3770   18.8360 N.3    47  VAL47      -0.1231
     62  CA        13.5430   39.5170   18.1690 C.3    47  VAL47       0.1692
     63  C         12.9970   39.2710   16.7720 C.2    47  VAL47       0.2593
     64  O         11.7860   39.1650   16.5850 O.2    47  VAL47      -0.2718
     65  CB        13.7420   38.1890   18.9630 C.3    47  VAL47       0.0266
     66  CG1       14.5340   37.1750   18.1440 C.3    47  VAL47       0.0020
     67  CG2       14.5040   38.4870   20.2690 C.3    47  VAL47       0.0020
     68  N         13.8880   39.2950   15.7840 N.am   48  GLY48      -0.1942
     69  CA        13.4820   39.0500   14.4160 C.3    48  GLY48       0.2014
     70  C         14.0970   37.7790   13.8660 C.2    48  GLY48       0.2639
     71  O         15.1440   37.3160   14.3330 O.2    48  GLY48      -0.2714
     72  N         13.3710   37.1580   12.9470 N.am   49  GLY49      -0.1939
     73  CA        13.8420   35.9570   12.2830 C.3    49  GLY49       0.2014
     74  C         13.2730   35.9750   10.8700 C.2    49  GLY49       0.2638
     75  O         13.0520   37.0300   10.2830 O.2    49  GLY49      -0.2714
     76  N         13.0610   34.8040   10.3090 N.am   50  ILE50      -0.1977
     77  CA        12.4650   34.6740    8.9810 C.3    50  ILE50       0.1596
     78  C         11.0150   35.0930    9.2430 C.2    50  ILE50       0.2287
     79  O         10.4990   34.8660   10.3460 O.2    50  ILE50      -0.2864
     80  CB        12.5160   33.1660    8.5410 C.3    50  ILE50       0.0276
     81  CG1       13.8940   32.8120    7.9890 C.3    50  ILE50       0.0022
     82  CG2       11.3590   32.7890    7.6380 C.3    50  ILE50       0.0022
     83  CD1       14.2930   33.5390    6.7710 C.3    50  ILE50       0.0001
     84  N          6.7820   31.3220   20.4680 N.3    80  THR80      -0.1204
     85  CA         7.5990   30.6870   19.4640 C.3    80  THR80       0.1979
     86  C          7.0390   29.2950   19.2210 C.2    80  THR80       0.2460
     87  O          6.5960   28.6250   20.1570 O.2    80  THR80      -0.2732
     88  CB         9.0870   30.6020   19.9040 C.3    80  THR80       0.1783
     89  OG1        9.8410   29.9020   18.9070 O.3    80  THR80      -0.2211
     90  CG2        9.2290   29.8770   21.2410 C.3    80  THR80       0.0376
     91  N          7.0600   28.8300   17.9590 N.am   81  PRO81      -0.2717
     92  CA         6.5450   27.4990   17.6240 C.3    81  PRO81       0.1535
     93  C          7.4460   26.4250   18.2030 C.2    81  PRO81       0.2598
     94  O          6.9770   25.3590   18.6110 O.2    81  PRO81      -0.2715
     95  CB         6.6080   27.4790   16.1060 C.3    81  PRO81       0.0310
     96  CG         6.7060   28.9410   15.7030 C.3    81  PRO81       0.0237
     97  CD         7.5620   29.5200   16.7610 C.3    81  PRO81       0.0939
     98  N          8.7430   26.7100   18.2760 N.am   82  ILE82      -0.1978
     99  CA         9.6920   25.7430   18.8200 C.3    82  ILE82       0.1596
    100  C         10.5800   26.4640   19.8280 C.2    82  ILE82       0.2287
    101  O         10.8710   27.6370   19.6420 O.2    82  ILE82      -0.2864
    102  CB        10.5970   25.1400   17.6770 C.3    82  ILE82       0.0276
    103  CG1        9.7430   24.5770   16.5430 C.3    82  ILE82       0.0022
    104  CG2       11.3950   23.9640   18.1940 C.3    82  ILE82       0.0022
    105  CD1       10.5490   23.9210   15.4280 C.3    82  ILE82       0.0001
    106  N         14.0290   27.4120   21.4530 N.3    84  ILE84      -0.1245
    107  CA        15.3650   27.5050   20.8890 C.3    84  ILE84       0.1561
    108  C         16.4450   27.8700   21.9200 C.2    84  ILE84       0.2260
    109  O         16.2530   28.7970   22.7160 O.2    84  ILE84      -0.2867
    110  CB        15.4070   28.6820   19.7930 C.3    84  ILE84       0.0252
    111  CG1       14.4340   28.4210   18.6420 C.3    84  ILE84       0.0019
    112  CG2       16.8360   28.9470   19.2770 C.3    84  ILE84       0.0019
    113  CD1       14.7880   27.1870   17.9010 C.3    84  ILE84       0.0001
@<TRIPOS>BOND
     1    83    81    1
     2    82    80    1
     3    81    80    1
     4    80    77    1
     5    77    78    1
     6    77    76    1
     7    78    79    2
     8    75    74    2
     9    76    74   am
    10    74    73    1
    11    11     9    1
    12    73    72    1
    13     8     9    2
    14     8     7    1
    15     9    10    1
    16    72    70   am
    17     6     7    1
    18     6     5    1
    19     1     2    1
    20    29    28    1
    21    29    30    1
    22    70    71    2
    23    70    69    1
    24    31    30    2
    25     2     5    1
    26     2     3    1
    27    69    68    1
    28    30    32   am
    29    26    25   ar
    30   105   103    1
    31     3     4    2
    32    96    95    1
    33    96    97    1
    34    68    63   am
    35    32    33    1
    36    19    17    1
    37    27    25   ar
    38    25    24    1
    39    95    92    1
    40    18    17    1
    41   103   102    1
    42    43    42   ar
    43    64    63    2
    44    44    42   ar
    45    97    91    1
    46    63    62    1
    47    33    36    1
    48    33    34    1
    49    17    16    1
    50    22    21    1
    51    22    23    2
    52    42    41    1
    53    21    24    1
    54    21    20    1
    55    92    91    1
    56    92    93    1
    57   102   104    1
    58   102    99    1
    59    34    37   am
    60    34    35    2
    61    37    38    1
    62   113   111    1
    63    91    86   am
    64    66    65    1
    65    62    61    1
    66    62    65    1
    67    93    98   am
    68    93    94    2
    69    98    99    1
    70    16    13    1
    71    41    38    1
    72   111   110    1
    73    38    39    1
    74    99   100    1
    75    89    88    1
    76    65    67    1
    77    86    85    1
    78    86    87    2
    79   112   110    1
    80    85    88    1
    81    85    84    1
    82    13    14    1
    83    13    12    1
    84   101   100    2
    85    14    15    2
    86   110   107    1
    87    88    90    1
    88    39    45   am
    89    39    40    2
    90    60    58    1
    91    45    46    1
    92    52    50   ar
    93   107   106    1
    94   107   108    1
    95    48    47    2
    96    50    49    1
    97    50    51   ar
    98    58    57    1
    99    46    47    1
   100    46    49    1
   101   108   109    2
   102    57    59    1
   103    57    54    1
   104    56    55    2
   105    53    54    1
   106    54    55    1
