@<TRIPOS>MOLECULE
tmp/1himB00.pdb
 117 113 0 0 0
SMALL
GASTEIGER

@<TRIPOS>ATOM
      1  N         -8.0420   19.8790  -25.4100 N.3    33  GLY33      -0.1225
      2  CA        -7.9000   20.4960  -24.1250 C.3    33  GLY33       0.1811
      3  C         -7.2290   19.5050  -23.2050 C.2    33  GLY33       0.2280
      4  O         -7.2620   18.3090  -23.4710 O.2    33  GLY33      -0.2866
      5  N         -9.3970   21.6310  -16.0410 N.3    50  THR50      -0.1203
      6  CA        -9.5450   21.3900  -17.4540 C.3    50  THR50       0.1994
      7  C         -9.0170   22.7020  -18.0910 C.2    50  THR50       0.2618
      8  O         -9.0350   23.7720  -17.4230 O.2    50  THR50      -0.2717
      9  CB       -11.0480   21.2100  -17.8230 C.3    50  THR50       0.1784
     10  OG1      -11.6340   20.1550  -17.0720 O.3    50  THR50      -0.2211
     11  CG2      -11.1790   20.9610  -19.3090 C.3    50  THR50       0.0376
     12  N         -8.5120   22.6890  -19.3500 N.am   51  ILE51      -0.1965
     13  CA        -8.2650   23.9380  -20.0930 C.3    51  ILE51       0.1727
     14  C         -8.5780   23.7200  -21.5650 C.2    51  ILE51       0.2617
     15  O         -8.5210   22.5920  -22.0340 O.2    51  ILE51      -0.2715
     16  CB        -6.8250   24.4400  -19.9870 C.3    51  ILE51       0.0290
     17  CG1       -6.8850   25.9600  -20.3150 C.3    51  ILE51       0.0022
     18  CG2       -5.8810   23.5170  -20.7630 C.3    51  ILE51       0.0023
     19  CD1       -5.5900   26.7780  -20.1360 C.3    51  ILE51       0.0001
     20  N         -9.0320   24.7650  -22.2410 N.am   52  SER52      -0.1936
     21  CA        -9.3450   24.7910  -23.6490 C.3    52  SER52       0.2055
     22  C         -8.2390   24.4260  -24.5610 C.2    52  SER52       0.2643
     23  O         -7.1060   24.7700  -24.2910 O.2    52  SER52      -0.2714
     24  CB        -9.7450   26.1380  -23.9920 C.3    52  SER52       0.2130
     25  OG       -11.0380   26.3640  -23.5360 O.3    52  SER52      -0.2179
     26  N         -8.5370   23.9320  -25.7460 N.am   53  ASN53      -0.1957
     27  CA        -7.4690   23.5510  -26.7010 C.3    53  ASN53       0.1819
     28  C         -6.6420   24.7280  -27.1320 C.2    53  ASN53       0.2621
     29  O         -5.5090   24.5700  -27.5950 O.2    53  ASN53      -0.2715
     30  CB        -8.0170   22.9290  -27.9580 C.3    53  ASN53       0.1195
     31  CG        -8.8350   23.8740  -28.8100 C.2    53  ASN53       0.2630
     32  OD1       -9.9000   24.3510  -28.3800 O.2    53  ASN53      -0.2716
     33  ND2       -8.3240   24.1970  -29.9950 N.am   53  ASN53      -0.0877
     34  N         -7.2890   25.8990  -26.9460 N.am   54  GLY54      -0.1954
     35  CA        -6.7320   27.2020  -27.2690 C.3    54  GLY54       0.1869
     36  C         -6.2140   27.9660  -26.0800 C.2    54  GLY54       0.2309
     37  O         -5.4100   28.8730  -26.2720 O.2    54  GLY54      -0.2863
     38  N         -7.9950   30.0910  -23.8100 N.3    56  GLY56      -0.1210
     39  CA        -8.9510   31.0330  -23.2680 C.3    56  GLY56       0.1956
     40  C         -9.9850   30.5160  -22.2980 C.2    56  GLY56       0.2611
     41  O        -10.5140   31.3910  -21.6190 O.2    56  GLY56      -0.2717
     42  N        -10.3850   29.2490  -22.1190 N.am   57  TYR57      -0.1976
     43  CA       -11.4250   29.0100  -21.1010 C.3    57  TYR57       0.1639
     44  C        -10.7860   28.1490  -19.9920 C.2    57  TYR57       0.2290
     45  O        -10.1040   27.1560  -20.3110 O.2    57  TYR57      -0.2864
     46  CB       -12.7160   28.2530  -21.6640 C.3    57  TYR57       0.0560
     47  CG       -13.5390   28.7220  -22.8950 C.ar   57  TYR57      -0.0198
     48  CD1      -12.9620   28.7040  -24.1490 C.ar   57  TYR57      -0.0009
     49  CD2      -14.8660   29.1470  -22.8170 C.ar   57  TYR57      -0.0009
     50  CE1      -13.6480   29.0840  -25.2850 C.ar   57  TYR57       0.0417
     51  CE2      -15.5640   29.5260  -23.9670 C.ar   57  TYR57       0.0417
     52  CZ       -14.9480   29.4900  -25.2130 C.ar   57  TYR57       0.1957
     53  OH       -15.5910   29.7900  -26.4210 O.3    57  TYR57      -0.2866
     54  N        -11.4290   26.1650  -16.0040 N.3    59  TYR59      -0.1241
     55  CA       -12.5330   25.5670  -15.2580 C.3    59  TYR59       0.1605
     56  C        -11.8750   24.9290  -14.0320 C.2    59  TYR59       0.2264
     57  O        -10.9140   24.1510  -14.2120 O.2    59  TYR59      -0.2867
     58  CB       -13.2190   24.4210  -16.0730 C.3    59  TYR59       0.0534
     59  CG       -13.6980   24.7660  -17.4700 C.ar   59  TYR59      -0.0201
     60  CD1      -12.8590   24.7500  -18.5740 C.ar   59  TYR59      -0.0009
     61  CD2      -14.9910   25.2090  -17.5990 C.ar   59  TYR59      -0.0009
     62  CE1      -13.3350   25.2000  -19.8020 C.ar   59  TYR59       0.0417
     63  CE2      -15.4570   25.6620  -18.8220 C.ar   59  TYR59       0.0417
     64  CZ       -14.6400   25.6540  -19.9110 C.ar   59  TYR59       0.1957
     65  OH       -15.1810   26.0580  -21.1050 O.3    59  TYR59      -0.2866
     66  N         -8.3240   15.8550  -22.8810 N.3    99  ARG99      -0.1231
     67  CA        -9.7750   15.9250  -23.1170 C.3    99  ARG99       0.1694
     68  C        -10.2850   15.4720  -24.4830 C.2    99  ARG99       0.2592
     69  O         -9.7350   15.8330  -25.5360 O.2    99  ARG99      -0.2718
     70  CB       -10.3080   17.3170  -22.9260 C.3    99  ARG99       0.0321
     71  CG       -10.1790   17.6210  -21.4670 C.3    99  ARG99       0.0489
     72  CD       -11.0330   16.6550  -20.7380 C.3    99  ARG99       0.2205
     73  NE       -12.3910   17.0790  -20.5840 N.pl3  99  ARG99      -0.0865
     74  CZ       -13.2780   16.2100  -20.0990 C.cat  99  ARG99       0.5346
     75  NH1      -12.9310   14.9240  -19.8950 N.pl3  99  ARG99       0.1354
     76  NH2      -14.5560   16.5990  -19.9090 N.pl3  99  ARG99       0.1354
     77  N        -11.3790   14.7180  -24.5500 N.am  100  GLU100     -0.1966
     78  CA       -11.7200   14.2240  -25.8480 C.3   100  GLU100      0.1733
     79  C        -12.5450   15.1520  -26.7130 C.2   100  GLU100      0.2616
     80  O        -13.7540   14.9460  -26.8510 O.2   100  GLU100     -0.2715
     81  CB       -12.3720   12.8250  -25.6440 C.3   100  GLU100      0.0429
     82  CG       -11.2890   11.7160  -25.4430 C.3   100  GLU100      0.1163
     83  CD       -10.0040   11.9710  -26.2290 C.2   100  GLU100      0.3649
     84  OE1      -10.0540   12.0670  -27.4700 O.co2 100  GLU100     -0.2457
     85  OE2       -8.9680   12.1090  -25.5780 O.co2 100  GLU100     -0.2457
     86  N        -11.8260   16.1170  -27.3500 N.am  101  ARG101     -0.1977
     87  CA       -12.4220   17.2050  -28.1340 C.3   101  ARG101      0.1597
     88  C        -13.4330   16.7180  -29.1480 C.2   101  ARG101      0.2287
     89  O        -14.5600   17.2120  -29.2170 O.2   101  ARG101     -0.2864
     90  CB       -11.3580   18.0220  -28.8900 C.3   101  ARG101      0.0334
     91  CG       -11.9830   19.1900  -29.6920 C.3   101  ARG101      0.0492
     92  CD       -11.0780   19.9830  -30.6570 C.3   101  ARG101      0.2205
     93  NE       -11.8650   20.8090  -31.5700 N.pl3 101  ARG101     -0.0865
     94  CZ       -11.3450   21.7710  -32.3290 C.cat 101  ARG101      0.5346
     95  NH1      -10.0610   22.1150  -32.2800 N.pl3 101  ARG101      0.1354
     96  NH2      -12.1530   22.4370  -33.1410 N.pl3 101  ARG101      0.1354
     97  N        -15.9760   13.3480  -27.2040 N.3   104  GLU104     -0.1231
     98  CA       -16.5640   13.6730  -25.9350 C.3   104  GLU104      0.1699
     99  C        -16.7700   12.3980  -25.1450 C.2   104  GLU104      0.2592
    100  O        -17.8650   12.0070  -24.7540 O.2   104  GLU104     -0.2718
    101  CB       -17.8320   14.4680  -26.2600 C.3   104  GLU104      0.0402
    102  CG       -17.2820   15.8140  -26.7680 C.3   104  GLU104      0.1161
    103  CD       -18.1690   16.9990  -27.1940 C.2   104  GLU104      0.3649
    104  OE1      -19.4030   16.8910  -27.0760 O.co2 104  GLU104     -0.2457
    105  OE2      -17.5910   18.0330  -27.6180 O.co2 104  GLU104     -0.2457
    106  N        -15.6710   11.6900  -24.9010 N.am  105  ASN105     -0.1960
    107  CA       -15.8030   10.3900  -24.2630 C.3   105  ASN105      0.1819
    108  C        -14.8690    9.8350  -23.1890 C.2   105  ASN105      0.2621
    109  O        -14.2390    8.7970  -23.3430 O.2   105  ASN105     -0.2715
    110  CB       -15.9100    9.4080  -25.4100 C.3   105  ASN105      0.1195
    111  CG       -14.6360    9.0270  -26.1360 C.2   105  ASN105      0.2630
    112  OD1      -13.5370    9.6100  -26.1560 O.2   105  ASN105     -0.2716
    113  ND2      -14.9810    7.9540  -26.8140 N.am  105  ASN105     -0.0877
    114  N        -14.7860   10.4390  -22.0160 N.am  106  GLY106     -0.1954
    115  CA       -14.0020    9.8830  -20.9430 C.3   106  GLY106      0.1869
    116  C        -12.6000   10.3570  -21.0590 C.2   106  GLY106      0.2309
    117  O        -12.2800   11.0410  -22.0100 O.2   106  GLY106     -0.2863
@<TRIPOS>BOND
     1    96    94    1
     2    94    95    1
     3    94    93    2
     4    93    92    1
     5    92    91    1
     6    33    31   am
     7    91    90    1
     8    89    88    2
     9    88    87    1
    10    90    87    1
    11    31    32    2
    12    31    30    1
    13    87    86    1
    14    30    27    1
    15   105   103   ar
    16    29    28    2
    17    84    83   ar
    18    86    79   am
    19    35    34    1
    20    35    36    1
    21    97    98    1
    22   103   104   ar
    23   103   102    1
    24    28    34   am
    25    28    27    1
    26    80    79    2
    27   113   111   am
    28   102   101    1
    29    79    78    1
    30    27    26    1
    31    53    52    1
    32    37    36    2
    33   101    98    1
    34    83    85   ar
    35    83    82    1
    36   112   111    2
    37   111   110    1
    38    98    99    1
    39    78    81    1
    40    78    77    1
    41    26    22   am
    42    81    82    1
    43    69    68    2
    44     1     2    1
    45   110   107    1
    46    50    52   ar
    47    50    48   ar
    48    52    51   ar
    49    99   106   am
    50    99   100    2
    51   106   107    1
    52    22    23    2
    53    22    21    1
    54    77    68   am
    55    68    67    1
    56   107   108    1
    57    48    47   ar
    58     2     3    1
    59    24    21    1
    60    24    25    1
    61    51    49   ar
    62    38    39    1
    63    21    20    1
    64     4     3    2
    65   109   108    2
    66    39    40    1
    67   108   114   am
    68    67    70    1
    69    67    66    1
    70    70    71    1
    71    47    49   ar
    72    47    46    1
    73    40    42   am
    74    40    41    2
    75    20    14   am
    76    42    43    1
    77    15    14    2
    78   114   115    1
    79   117   116    2
    80    46    43    1
    81    14    13    1
    82    71    72    1
    83    65    64    1
    84    43    44    1
    85   116   115    1
    86    18    16    1
    87    72    73    1
    88    73    74    2
    89    17    19    1
    90    17    16    1
    91    45    44    2
    92    74    76    1
    93    74    75    1
    94    13    16    1
    95    13    12    1
    96    64    62   ar
    97    64    63   ar
    98    62    60   ar
    99    12     7   am
   100    11     9    1
   101    63    61   ar
   102    60    59   ar
   103     7     6    1
   104     7     8    2
   105     9     6    1
   106     9    10    1
   107    61    59   ar
   108    59    58    1
   109     6     5    1
   110    58    55    1
   111    54    55    1
   112    55    56    1
   113    57    56    2
