@<TRIPOS>MOLECULE
tmp/1hivA00.pdb
 127 120 0 0 0
SMALL
GASTEIGER

@<TRIPOS>ATOM
      1  N          4.2340   -5.0160   27.8590 N.3     8  ARG8       -0.1245
      2  CA         3.6260   -4.4130   26.6980 C.3     8  ARG8        0.1563
      3  C          2.5230   -3.5270   27.2150 C.2     8  ARG8        0.2260
      4  O          1.6510   -4.0060   27.9930 O.2     8  ARG8       -0.2867
      5  CB         2.9050   -5.5010   25.8150 C.3     8  ARG8        0.0307
      6  CG         3.9260   -6.1380   24.8710 C.3     8  ARG8        0.0489
      7  CD         3.2540   -6.8820   23.7630 C.3     8  ARG8        0.2205
      8  NE         4.3390   -7.6460   23.1110 N.pl3   8  ARG8       -0.0865
      9  CZ         4.1700   -8.8540   22.5770 C.cat   8  ARG8        0.5346
     10  NH1        2.9790   -9.4320   22.6990 N.pl3   8  ARG8        0.1354
     11  NH2        5.1130   -9.5480   21.9630 N.pl3   8  ARG8        0.1354
     12  N         -2.6650   -2.2530   22.1240 N.3    23  LEU23      -0.1301
     13  CA        -1.3650   -1.7900   22.5280 C.3    23  LEU23       0.1247
     14  C         -1.2390   -0.2690   22.3220 C.3    23  LEU23       0.2009
     15  O         -1.6990    0.1600   21.2280 O.3    23  LEU23      -0.2188
     16  CB        -0.3660   -2.5520   21.6690 C.3    23  LEU23       0.0217
     17  CG         1.1080   -2.3290   21.8640 C.3    23  LEU23       0.0015
     18  CD1        1.5590   -3.1870   23.0630 C.3    23  LEU23       0.0000
     19  CD2        1.8220   -2.9480   20.6440 C.3    23  LEU23       0.0000
     20  N          0.8850    2.4640   21.0690 N.3    25  ASP25      -0.1295
     21  CA         2.1370    2.3190   20.2760 C.3    25  ASP25       0.1359
     22  C          2.5600    3.6270   19.7340 C.3    25  ASP25       0.2015
     23  O          1.8290    4.1060   18.7810 O.3    25  ASP25      -0.2188
     24  CB         1.4640    1.3750   19.1920 C.3    25  ASP25       0.1357
     25  CG         2.5020    0.8590   18.2580 C.2    25  ASP25       0.3664
     26  OD1        3.5560    1.3740   17.9890 O.co2  25  ASP25      -0.2456
     27  OD2        2.2840   -0.3180   17.8660 O.co2  25  ASP25      -0.2456
     28  N          5.1390    4.1900   17.9270 N.3    27  GLY27      -0.1210
     29  CA         5.8260    3.9760   16.6400 C.3    27  GLY27       0.1956
     30  C          4.7310    3.8210   15.5500 C.2    27  GLY27       0.2612
     31  O          5.1270    3.5850   14.3870 O.2    27  GLY27      -0.2717
     32  N          3.4800    3.9800   15.9010 N.am   28  ALA28      -0.1965
     33  CA         2.4000    3.8810   14.9290 C.3    28  ALA28       0.1728
     34  C          1.7110    5.2220   14.6700 C.2    28  ALA28       0.2616
     35  O          1.1600    5.8570   15.5860 O.2    28  ALA28      -0.2715
     36  CB         1.3140    2.8720   15.2570 C.3    28  ALA28       0.0334
     37  N          1.7290    5.6440   13.3510 N.am   29  ASP29      -0.1957
     38  CA         1.0160    6.9020   13.0410 C.3    29  ASP29       0.1840
     39  C         -0.4780    6.8490   13.2740 C.2    29  ASP29       0.2622
     40  O         -1.1300    7.8060   13.7780 O.2    29  ASP29      -0.2715
     41  CB         1.2380    7.3400   11.5910 C.3    29  ASP29       0.1450
     42  CG         2.6930    7.5290   11.2920 C.2    29  ASP29       0.3671
     43  OD1        3.6370    7.6530   12.0520 O.co2  29  ASP29      -0.2456
     44  OD2        2.9070    7.4860   10.0550 O.co2  29  ASP29      -0.2456
     45  N         -1.1250    5.7910   12.9270 N.am   30  ASP30      -0.1971
     46  CA        -2.5240    5.5230   12.9900 C.3    30  ASP30       0.1709
     47  C         -2.8470    4.2360   13.8280 C.2    30  ASP30       0.2293
     48  O         -1.9510    3.5010   14.0930 O.2    30  ASP30      -0.2864
     49  CB        -3.1490    5.2530   11.5900 C.3    30  ASP30       0.1436
     50  CG        -3.4160    6.6170   10.9340 C.2    30  ASP30       0.3671
     51  OD1       -4.3590    7.3470   11.3260 O.co2  30  ASP30      -0.2456
     52  OD2       -2.5650    6.8410   10.0500 O.co2  30  ASP30      -0.2456
     53  N         -4.7770    0.8950   14.1270 N.3    32  VAL32      -0.1301
     54  CA        -5.0750   -0.2900   13.3690 C.3    32  VAL32       0.1246
     55  C         -5.6600   -1.4040   14.2430 C.3    32  VAL32       0.2009
     56  O         -4.8740   -1.8750   15.0830 O.3    32  VAL32      -0.2188
     57  CB        -3.8210   -0.8880   12.6480 C.3    32  VAL32       0.0202
     58  CG1       -4.3560   -1.8440   11.5540 C.3    32  VAL32       0.0016
     59  CG2       -2.8570    0.0970   12.0600 C.3    32  VAL32       0.0016
     60  N         -1.0610    0.3600    4.0220 N.3    47  ILE47      -0.1231
     61  CA        -0.1690    0.8710    5.0730 C.3    47  ILE47       0.1692
     62  C          1.0240   -0.0250    5.1980 C.2    47  ILE47       0.2593
     63  O          0.8080   -1.2040    4.8960 O.2    47  ILE47      -0.2718
     64  CB        -0.8510    1.0530    6.5030 C.3    47  ILE47       0.0266
     65  CG1       -1.0560   -0.3000    7.2210 C.3    47  ILE47       0.0019
     66  CG2       -2.1320    1.9230    6.4460 C.3    47  ILE47       0.0020
     67  CD1       -1.6870   -0.1960    8.6690 C.3    47  ILE47       0.0001
     68  N          2.1080    0.4670    5.6960 N.am   48  GLY48      -0.1942
     69  CA         3.3280   -0.2150    5.9090 C.3    48  GLY48       0.2014
     70  C          3.7390   -0.3600    7.3630 C.2    48  GLY48       0.2639
     71  O          3.3760    0.5280    8.1820 O.2    48  GLY48      -0.2714
     72  N          4.4900   -1.4010    7.5980 N.am   49  GLY49      -0.1939
     73  CA         5.0070   -1.8540    8.8760 C.3    49  GLY49       0.2014
     74  C          6.3500   -2.4330    8.7320 C.2    49  GLY49       0.2635
     75  O          6.8800   -2.2480    7.5790 O.2    49  GLY49      -0.2714
     76  N          7.0510   -3.0870    9.6430 N.am   50  ILE50      -0.2030
     77  CA         8.3920   -3.5710    9.3860 C.3    50  ILE50       0.1282
     78  C          8.4060   -4.7660    8.4030 C.3    50  ILE50       0.2035
     79  O          9.5640   -5.0130    7.9980 O.3    50  ILE50      -0.2185
     80  CB         9.2780   -4.1500   10.5960 C.3    50  ILE50       0.0226
     81  CG1        8.2420   -4.5350   11.6460 C.3    50  ILE50       0.0018
     82  CG2       10.5760   -3.5580   11.1150 C.3    50  ILE50       0.0018
     83  CD1        7.5810   -5.8440   11.1850 C.3    50  ILE50       0.0001
     84  N          6.2190   -4.9760    5.7310 N.3    52  GLY52      -0.1210
     85  CA         5.7790   -4.5640    4.4060 C.3    52  GLY52       0.1956
     86  C          4.4310   -3.8990    4.4640 C.2    52  GLY52       0.2611
     87  O          4.0000   -3.3490    5.4620 O.2    52  GLY52      -0.2717
     88  N          3.6910   -3.9310    3.3720 N.am   53  PHE53      -0.1976
     89  CA         2.4240   -3.2630    3.1380 C.3    53  PHE53       0.1639
     90  C          1.2580   -4.1630    3.1460 C.2    53  PHE53       0.2290
     91  O          1.3000   -5.2640    2.5840 O.2    53  PHE53      -0.2864
     92  CB         2.5450   -2.5500    1.7450 C.3    53  PHE53       0.0560
     93  CG         3.4930   -1.4000    1.9220 C.ar   53  PHE53      -0.0200
     94  CD1        4.8450   -1.5380    1.8750 C.ar   53  PHE53      -0.0042
     95  CD2        2.9540   -0.1250    2.1760 C.ar   53  PHE53      -0.0042
     96  CE1        5.7280   -0.4810    2.1050 C.ar   53  PHE53      -0.0003
     97  CE2        3.8080    0.9700    2.3130 C.ar   53  PHE53      -0.0003
     98  CZ         5.1730    0.8020    2.3160 C.ar   53  PHE53      -0.0000
     99  N         -3.5870   -6.9560   11.3300 N.3    79  THR79      -0.1204
    100  CA        -2.5080   -6.5680   12.2580 C.3    79  THR79       0.1979
    101  C         -2.2870   -7.6810   13.2520 C.2    79  THR79       0.2460
    102  O         -3.2480   -8.3630   13.6490 O.2    79  THR79      -0.2732
    103  CB        -2.9870   -5.1770   12.9180 C.3    79  THR79       0.1783
    104  OG1       -1.8280   -4.6810   13.6790 O.3    79  THR79      -0.2211
    105  CG2       -4.2570   -5.3280   13.7630 C.3    79  THR79       0.0376
    106  N         -1.0580   -7.9660   13.6640 N.am   80  PRO80      -0.2717
    107  CA        -0.7660   -8.9690   14.6920 C.3    80  PRO80       0.1535
    108  C         -1.4580   -8.6440   16.0280 C.2    80  PRO80       0.2598
    109  O         -1.7530   -9.5960   16.7920 O.2    80  PRO80      -0.2715
    110  CB         0.7410   -8.9590   14.9140 C.3    80  PRO80       0.0310
    111  CG         1.2190   -7.6750   14.3160 C.3    80  PRO80       0.0237
    112  CD         0.1870   -7.3250   13.2490 C.3    80  PRO80       0.0939
    113  N         -1.7270   -7.3790   16.3510 N.am   81  VAL81      -0.1978
    114  CA        -2.4210   -6.8980   17.5350 C.3    81  VAL81       0.1596
    115  C         -3.1840   -5.6040   17.2860 C.2    81  VAL81       0.2287
    116  O         -2.7930   -4.7740   16.4750 O.2    81  VAL81      -0.2864
    117  CB        -1.4560   -6.4760   18.7290 C.3    81  VAL81       0.0276
    118  CG1       -1.3900   -7.4360   19.8870 C.3    81  VAL81       0.0022
    119  CG2       -0.0410   -6.1040   18.3440 C.3    81  VAL81       0.0022
    120  N         -3.7220   -1.9390   17.7890 N.3    83  ILE83      -0.1245
    121  CA        -2.7360   -0.9300   18.1380 C.3    83  ILE83       0.1561
    122  C         -3.3880    0.4580   18.1130 C.2    83  ILE83       0.2260
    123  O         -4.2170    0.7030   17.2470 O.2    83  ILE83      -0.2867
    124  CB        -1.4230   -0.9720   17.3190 C.3    83  ILE83       0.0252
    125  CG1       -1.6430   -0.3380   15.9270 C.3    83  ILE83       0.0019
    126  CG2       -0.7180   -2.3460   17.2310 C.3    83  ILE83       0.0019
    127  CD1       -0.6310   -0.8930   14.8750 C.3    83  ILE83       0.0001
@<TRIPOS>BOND
     1    92    93    1
     2    92    89    1
     3    94    93   ar
     4    94    96   ar
     5    93    95   ar
     6    96    98   ar
     7    95    97   ar
     8    97    98   ar
     9    91    90    2
    10    89    90    1
    11    89    88    1
    12    88    86   am
    13    60    61    1
    14    85    86    1
    15    85    84    1
    16    86    87    2
    17    63    62    2
    18    61    62    1
    19    61    64    1
    20    62    68   am
    21    68    69    1
    22    69    70    1
    23    66    64    1
    24    64    65    1
    25    65    67    1
    26    70    72   am
    27    70    71    2
    28    75    74    2
    29    72    73    1
    30    79    78    1
    31    78    77    1
    32    74    73    1
    33    74    76   am
    34    77    76    1
    35    77    80    1
    36    52    50   ar
    37    44    42   ar
    38    80    82    1
    39    80    81    1
    40    50    51   ar
    41    50    49    1
    42    83    81    1
    43    42    41    1
    44    42    43   ar
    45    99   100    1
    46    58    57    1
    47    49    46    1
    48    41    38    1
    49    59    57    1
    50   100   103    1
    51   100   101    1
    52    57    54    1
    53   103   104    1
    54   103   105    1
    55    45    46    1
    56    45    39   am
    57    46    47    1
    58    38    39    1
    59    38    37    1
    60   112   106    1
    61   112   111    1
    62   101   102    2
    63   101   106   am
    64    39    40    2
    65    37    34   am
    66    54    53    1
    67    54    55    1
    68   106   107    1
    69    47    48    2
    70    55    56    1
    71   111   110    1
    72    31    30    2
    73    34    33    1
    74    34    35    2
    75   107   110    1
    76   107   108    1
    77   127   125    1
    78    33    36    1
    79    33    32    1
    80    30    32   am
    81    30    29    1
    82   125   124    1
    83   108   113   am
    84   108   109    2
    85   113   114    1
    86   116   115    2
    87    29    28    1
    88   126   124    1
    89   123   122    2
    90   115   114    1
    91   124   121    1
    92   114   117    1
    93   120   121    1
    94    27    25   ar
    95    26    25   ar
    96   122   121    1
    97    25    24    1
    98   119   117    1
    99   117   118    1
   100    23    22    1
   101    24    21    1
   102    22    21    1
   103    21    20    1
   104    19    17    1
   105    15    14    1
   106    16    17    1
   107    16    13    1
   108    17    18    1
   109    11     9    1
   110    12    13    1
   111    14    13    1
   112     9    10    1
   113     9     8    2
   114     8     7    1
   115     7     6    1
   116     6     5    1
   117     5     2    1
   118     2     3    1
   119     2     1    1
   120     3     4    2
