@<TRIPOS>MOLECULE
tmp/1hizA00.pdb
 130 127 0 0 0
SMALL
GASTEIGER

@<TRIPOS>ATOM
      1  N         -3.6010   58.4330   -5.5960 N.3    54  GLU54      -0.1231
      2  CA        -2.7340   59.5780   -5.8050 C.3    54  GLU54       0.1699
      3  C         -1.8310   59.8380   -4.6010 C.2    54  GLU54       0.2592
      4  O         -0.6920   60.2760   -4.7680 O.2    54  GLU54      -0.2718
      5  CB        -3.5710   60.8310   -6.1060 C.3    54  GLU54       0.0402
      6  CG        -2.7430   62.0770   -6.4520 C.3    54  GLU54       0.1161
      7  CD        -3.5980   63.3100   -6.7510 C.2    54  GLU54       0.3649
      8  OE1       -4.8420   63.1940   -6.8150 O.co2  54  GLU54      -0.2457
      9  OE2       -3.0240   64.4020   -6.9300 O.co2  54  GLU54      -0.2457
     10  N         -2.3170   59.5470   -3.3950 N.am   55  ASN55      -0.1974
     11  CA        -1.5230   59.8180   -2.2000 C.3    55  ASN55       0.1688
     12  C         -1.6290   58.8950   -0.9870 C.2    55  ASN55       0.2292
     13  O         -0.6550   58.7500   -0.2430 O.2    55  ASN55      -0.2864
     14  CB        -1.8170   61.2400   -1.7130 C.3    55  ASN55       0.1181
     15  CG        -1.0840   62.2910   -2.5060 C.2    55  ASN55       0.2629
     16  OD1        0.1460   62.3680   -2.4630 O.2    55  ASN55      -0.2716
     17  ND2       -1.8330   63.1130   -3.2390 N.am   55  ASN55      -0.0877
     18  N          1.1720   55.9720   -0.2740 N.3    58  LYS58      -0.1245
     19  CA         2.5970   56.2510   -0.1680 C.3    58  LYS58       0.1561
     20  C          3.0580   55.8710    1.2410 C.2    58  LYS58       0.2260
     21  O          2.2530   55.8060    2.1720 O.2    58  LYS58      -0.2867
     22  CB         2.8880   57.7250   -0.4760 C.3    58  LYS58       0.0271
     23  CG         2.3040   58.7260    0.4890 C.3    58  LYS58       0.0035
     24  CD         2.4290   60.1310   -0.0880 C.3    58  LYS58       0.0206
     25  CE         1.6400   61.1450    0.7200 C.3    58  LYS58       0.1093
     26  NZ         1.5460   62.4470   -0.0010 N.3    58  LYS58      -0.1314
     27  N          0.6390   52.8670   -5.6670 N.3    91  HIS91      -0.1241
     28  CA         1.5280   54.0070   -5.7430 C.3    91  HIS91       0.1621
     29  C          2.6660   53.9290   -4.7110 C.2    91  HIS91       0.2264
     30  O          2.5330   54.3350   -3.5460 O.2    91  HIS91      -0.2867
     31  CB         0.7680   55.3250   -5.6160 C.3    91  HIS91       0.0745
     32  CG         1.6450   56.5390   -5.7980 C.ar   91  HIS91       0.0817
     33  ND1        2.7450   56.5370   -6.6130 N.ar   91  HIS91      -0.2268
     34  CD2        1.5730   57.7760   -5.2510 C.ar   91  HIS91       0.1154
     35  CE1        3.3330   57.7270   -6.5690 C.ar   91  HIS91       0.1986
     36  NE2        2.6420   58.4960   -5.7510 N.ar   91  HIS91      -0.2212
     37  N         10.0710   55.3560   -1.6200 N.3    95  TRP95      -0.1241
     38  CA        10.1850   56.6680   -2.2440 C.3    95  TRP95       0.1605
     39  C         10.9340   57.6120   -1.3000 C.2    95  TRP95       0.2264
     40  O         10.7310   57.5720   -0.0880 O.2    95  TRP95      -0.2867
     41  CB         8.7730   57.1880   -2.5270 C.3    95  TRP95       0.0550
     42  CG         8.6820   58.3850   -3.4250 C.ar   95  TRP95       0.0003
     43  CD1        9.6790   58.9290   -4.1820 C.ar   95  TRP95       0.0946
     44  CD2        7.5070   59.1590   -3.6920 C.ar   95  TRP95       0.0152
     45  NE1        9.1980   59.9950   -4.9050 N.ar   95  TRP95      -0.2442
     46  CE2        7.8660   60.1580   -4.6230 C.ar   95  TRP95       0.0810
     47  CE3        6.1790   59.1020   -3.2350 C.ar   95  TRP95       0.0012
     48  CZ2        6.9460   61.0980   -5.1110 C.ar   95  TRP95       0.0191
     49  CZ3        5.2630   60.0350   -3.7210 C.ar   95  TRP95       0.0001
     50  CH2        5.6550   61.0210   -4.6510 C.ar   95  TRP95       0.0015
     51  N         10.6820   60.8870   -1.3080 N.3    97  SER97      -0.1202
     52  CA         9.8070   62.0040   -0.9750 C.3    97  SER97       0.2020
     53  C          8.8990   61.7190    0.2130 C.2    97  SER97       0.2618
     54  O          8.2240   60.6910    0.2560 O.2    97  SER97      -0.2717
     55  CB         8.9670   62.3770   -2.1910 C.3    97  SER97       0.2103
     56  OG         8.1500   63.4950   -1.9100 O.3    97  SER97      -0.2182
     57  N          8.8880   62.6450    1.1710 N.am   98  GLN98      -0.1979
     58  CA         8.0770   62.5270    2.3840 C.3    98  GLN98       0.1601
     59  C          8.2280   61.1740    3.0660 C.2    98  GLN98       0.2287
     60  O          7.2570   60.6240    3.5850 O.2    98  GLN98      -0.2864
     61  CB         6.5970   62.7390    2.0740 C.3    98  GLN98       0.0394
     62  CG         6.2330   64.0950    1.5190 C.3    98  GLN98       0.0908
     63  CD         4.7330   64.2440    1.3680 C.2    98  GLN98       0.2608
     64  OE1        4.0050   64.3400    2.3570 O.2    98  GLN98      -0.2717
     65  NE2        4.2600   64.2450    0.1300 N.am   98  GLN98      -0.0878
     66  N         11.3020   56.9210   -8.3330 N.3   155  GLU155     -0.1245
     67  CA        12.3010   57.9710   -8.4940 C.3   155  GLU155      0.1567
     68  C         13.6560   57.7070   -7.8360 C.2   155  GLU155      0.2260
     69  O         14.2020   58.5810   -7.1580 O.2   155  GLU155     -0.2867
     70  CB        11.7060   59.2860   -7.9750 C.3   155  GLU155      0.0388
     71  CG        10.4250   59.6630   -8.7110 C.3   155  GLU155      0.1160
     72  CD         9.7030   60.8730   -8.1380 C.2   155  GLU155      0.3649
     73  OE1       10.2140   61.5150   -7.1930 O.co2 155  GLU155     -0.2457
     74  OE2        8.6080   61.1850   -8.6490 O.co2 155  GLU155     -0.2457
     75  N          6.1860   58.0570  -15.5250 N.3   230  GLN230     -0.1245
     76  CA         5.2520   59.0450  -14.9840 C.3   230  GLN230      0.1566
     77  C          4.6340   59.9140  -16.0760 C.2   230  GLN230      0.2260
     78  O          3.4440   60.2230  -16.0380 O.2   230  GLN230     -0.2867
     79  CB         5.9470   59.9170  -13.9360 C.3   230  GLN230      0.0367
     80  CG         6.3130   59.1390  -12.6860 C.3   230  GLN230      0.0905
     81  CD         6.8670   60.0030  -11.5800 C.2   230  GLN230      0.2608
     82  OE1        7.3600   59.4890  -10.5770 O.2   230  GLN230     -0.2717
     83  NE2        6.7860   61.3190  -11.7460 N.am  230  GLN230     -0.0878
     84  N          5.0750   63.2220  -16.9690 N.3   232  HIS232     -0.1241
     85  CA         4.6160   64.5590  -16.6270 C.3   232  HIS232      0.1621
     86  C          5.2650   65.3710  -17.7320 C.2   232  HIS232      0.2264
     87  O          6.3480   65.9400  -17.5780 O.2   232  HIS232     -0.2867
     88  CB         5.1170   64.9500  -15.2420 C.3   232  HIS232      0.0745
     89  CG         4.4550   64.1750  -14.1480 C.ar  232  HIS232      0.0817
     90  ND1        3.0940   64.2250  -13.9270 N.ar  232  HIS232     -0.2268
     91  CD2        4.9460   63.2710  -13.2670 C.ar  232  HIS232      0.1154
     92  CE1        2.7770   63.3840  -12.9600 C.ar  232  HIS232      0.1986
     93  NE2        3.8820   62.7920  -12.5430 N.ar  232  HIS232     -0.2212
     94  N          1.5890   58.3750  -14.7460 N.3   261  GLU261     -0.1245
     95  CA         1.0410   59.6050  -14.1650 C.3   261  GLU261      0.1567
     96  C          0.8960   60.7000  -15.1980 C.2   261  GLU261      0.2260
     97  O          1.2480   61.8580  -14.9610 O.2   261  GLU261     -0.2867
     98  CB         1.9450   60.0810  -13.0250 C.3   261  GLU261      0.0388
     99  CG         2.3240   58.9800  -12.0600 C.3   261  GLU261      0.1160
    100  CD         3.2770   59.4510  -10.9860 C.2   261  GLU261      0.3649
    101  OE1        3.5330   60.6700  -10.9080 O.co2 261  GLU261     -0.2457
    102  OE2        3.7680   58.6000  -10.2190 O.co2 261  GLU261     -0.2457
    103  N         -2.8030   61.2470  -14.1810 N.3   312  TRP312     -0.1241
    104  CA        -2.6310   61.6000  -12.7820 C.3   312  TRP312      0.1605
    105  C         -3.7640   62.5280  -12.3620 C.2   312  TRP312      0.2264
    106  O         -3.5360   63.6500  -11.9000 O.2   312  TRP312     -0.2867
    107  CB        -1.2730   62.2710  -12.5560 C.3   312  TRP312      0.0550
    108  CG        -0.7830   62.1280  -11.1440 C.ar  312  TRP312      0.0003
    109  CD1       -0.4910   63.1340  -10.2680 C.ar  312  TRP312      0.0946
    110  CD2       -0.5490   60.9010  -10.4400 C.ar  312  TRP312      0.0152
    111  NE1       -0.0910   62.6080   -9.0610 N.ar  312  TRP312     -0.2442
    112  CE2       -0.1190   61.2410   -9.1390 C.ar  312  TRP312      0.0810
    113  CE3       -0.6630   59.5450  -10.7830 C.ar  312  TRP312      0.0012
    114  CZ2        0.1970   60.2740   -8.1760 C.ar  312  TRP312      0.0191
    115  CZ3       -0.3500   58.5810   -9.8270 C.ar  312  TRP312      0.0001
    116  CH2        0.0750   58.9510   -8.5390 C.ar  312  TRP312      0.0015
    117  N         -2.4260   68.1020   -9.4970 N.3   320  TRP320     -0.1241
    118  CA        -1.2760   68.5340   -8.7110 C.3   320  TRP320      0.1605
    119  C         -0.4600   69.5860   -9.4620 C.2   320  TRP320      0.2264
    120  O          0.3740   70.2660   -8.8660 O.2   320  TRP320     -0.2867
    121  CB        -0.3720   67.3430   -8.3860 C.3   320  TRP320      0.0550
    122  CG         0.4880   66.9260   -9.5420 C.ar  320  TRP320      0.0003
    123  CD1        0.0680   66.4190  -10.7370 C.ar  320  TRP320      0.0946
    124  CD2        1.9150   67.0120   -9.6210 C.ar  320  TRP320      0.0152
    125  NE1        1.1450   66.1830  -11.5580 N.ar  320  TRP320     -0.2442
    126  CE2        2.2920   66.5380  -10.8980 C.ar  320  TRP320      0.0810
    127  CE3        2.9130   67.4440   -8.7370 C.ar  320  TRP320      0.0012
    128  CZ2        3.6290   66.4840  -11.3150 C.ar  320  TRP320      0.0191
    129  CZ3        4.2440   67.3900   -9.1510 C.ar  320  TRP320      0.0001
    130  CH2        4.5870   66.9120  -10.4310 C.ar  320  TRP320      0.0015
@<TRIPOS>BOND
     1    86    87    2
     2    86    85    1
     3    84    85    1
     4    85    88    1
     5    77    78    2
     6    77    76    1
     7    75    76    1
     8    88    89    1
     9    96    97    2
    10    96    95    1
    11    76    79    1
    12    94    95    1
    13   103   104    1
    14    95    98    1
    15    89    90   ar
    16    89    91   ar
    17    79    80    1
    18    90    92   ar
    19    91    93   ar
    20    98    99    1
    21    92    93   ar
    22   104   107    1
    23   104   105    1
    24    80    81    1
    25   107   108    1
    26   105   106    2
    27    99   100    1
    28    83    81   am
    29    81    82    2
    30   125   126   ar
    31   125   123   ar
    32   128   126   ar
    33   128   130   ar
    34   108   110   ar
    35   108   109   ar
    36   100   101   ar
    37   100   102   ar
    38   126   124   ar
    39   113   110   ar
    40   113   115   ar
    41   123   122   ar
    42   110   112   ar
    43   130   129   ar
    44   109   111   ar
    45   115   116   ar
    46   124   122   ar
    47   124   127   ar
    48   122   121    1
    49   117   118    1
    50   119   120    2
    51   119   118    1
    52   129   127   ar
    53   112   111   ar
    54   112   114   ar
    55   118   121    1
    56    71    72    1
    57    71    70    1
    58    74    72   ar
    59   116   114   ar
    60    67    66    1
    61    67    70    1
    62    67    68    1
    63    72    73   ar
    64    68    69    2
    65     9     7   ar
    66     8     7   ar
    67     7     6    1
    68    33    35   ar
    69    33    32   ar
    70    35    36   ar
    71     6     5    1
    72     5     2    1
    73     2     1    1
    74     2     3    1
    75    32    31    1
    76    32    34   ar
    77    36    34   ar
    78    28    27    1
    79    28    31    1
    80    28    29    1
    81    48    50   ar
    82    48    46   ar
    83    45    46   ar
    84    45    43   ar
    85     4     3    2
    86    29    30    2
    87    50    49   ar
    88    46    44   ar
    89     3    10   am
    90    43    42   ar
    91    49    47   ar
    92    44    42   ar
    93    44    47   ar
    94    42    41    1
    95    10    11    1
    96    17    15   am
    97    41    38    1
    98    15    16    2
    99    15    14    1
   100    38    37    1
   101    38    39    1
   102    11    14    1
   103    11    12    1
   104    55    56    1
   105    55    52    1
   106    51    52    1
   107    39    40    2
   108    12    13    2
   109    52    53    1
   110    22    19    1
   111    22    23    1
   112    18    19    1
   113    19    20    1
   114    24    23    1
   115    24    25    1
   116    26    25    1
   117    65    63   am
   118    53    54    2
   119    53    57   am
   120    57    58    1
   121    20    21    2
   122    63    62    1
   123    63    64    2
   124    62    61    1
   125    61    58    1
   126    58    59    1
   127    59    60    2
