@<TRIPOS>MOLECULE
tmp/1hj1A00.pdb
 234 221 0 0 0
SMALL
GASTEIGER

@<TRIPOS>ATOM
      1  N         -7.8190   -2.7170   49.7900 N.3    33  MET33      -0.1245
      2  CA        -7.8170   -1.5910   48.8480 C.3    33  MET33       0.1570
      3  C         -7.7550   -0.2490   49.5560 C.2    33  MET33       0.2261
      4  O         -7.2000    0.7120   49.0180 O.2    33  MET33      -0.2867
      5  CB        -9.0420   -1.6500   47.9070 C.3    33  MET33       0.0387
      6  CG        -8.7470   -2.7090   46.8380 C.3    33  MET33       0.0595
      7  SD        -7.4290   -2.1740   45.7240 S.3    33  MET33      -0.1393
      8  CE        -7.2090   -3.7240   44.9340 C.3    33  MET33       0.0692
      9  N         -3.8860    0.1700   50.3950 N.3    36  LEU36      -0.1231
     10  CA        -3.0770    0.4540   49.1980 C.3    36  LEU36       0.1693
     11  C         -3.3270    1.8650   48.7050 C.2    36  LEU36       0.2592
     12  O         -2.4350    2.6670   48.4100 O.2    36  LEU36      -0.2718
     13  CB        -3.3960   -0.6630   48.1970 C.3    36  LEU36       0.0284
     14  CG        -2.8210   -2.0320   48.6690 C.3    36  LEU36       0.0019
     15  CD1       -3.0300   -3.1070   47.6180 C.3    36  LEU36       0.0001
     16  CD2       -1.3320   -1.8570   48.9430 C.3    36  LEU36       0.0001
     17  N         -4.6090    2.2060   48.6460 N.am   37  THR37      -0.1953
     18  CA        -5.0200    3.5580   48.1960 C.3    37  THR37       0.1897
     19  C         -4.4780    4.6080   49.1210 C.2    37  THR37       0.2313
     20  O         -3.8640    5.5660   48.6380 O.2    37  THR37      -0.2863
     21  CB        -6.5730    3.5600   48.1490 C.3    37  THR37       0.1794
     22  OG1       -6.9360    2.8630   46.9510 O.3    37  THR37      -0.2208
     23  CG2       -7.0880    4.9690   48.1340 C.3    37  THR37       0.0378
     24  N         -1.8650    4.5270   51.0340 N.3    39  LEU39      -0.1231
     25  CA        -0.4050    4.4960   50.8150 C.3    39  LEU39       0.1693
     26  C         -0.0430    5.2590   49.5420 C.2    39  LEU39       0.2592
     27  O          0.8030    6.1270   49.5450 O.2    39  LEU39      -0.2718
     28  CB         0.0200    3.0090   50.6500 C.3    39  LEU39       0.0284
     29  CG         1.4430    2.8480   50.1040 C.3    39  LEU39       0.0019
     30  CD1        2.4710    3.4430   51.0390 C.3    39  LEU39       0.0001
     31  CD2        1.7690    1.3870   49.8280 C.3    39  LEU39       0.0001
     32  N         -0.7150    4.8910   48.4300 N.am   40  ALA40      -0.1966
     33  CA        -0.3380    5.5730   47.1720 C.3    40  ALA40       0.1728
     34  C         -0.5340    7.0640   47.2750 C.2    40  ALA40       0.2616
     35  O          0.2510    7.8370   46.7410 O.2    40  ALA40      -0.2715
     36  CB        -1.0810    5.0240   45.9500 C.3    40  ALA40       0.0334
     37  N         -1.5930    7.4550   47.9700 N.am   41  ASP41      -0.1971
     38  CA        -1.8320    8.9140   48.0360 C.3    41  ASP41       0.1709
     39  C         -0.6640    9.6240   48.6540 C.2    41  ASP41       0.2293
     40  O         -0.2360   10.6410   48.1140 O.2    41  ASP41      -0.2864
     41  CB        -3.0750    9.1760   48.8920 C.3    41  ASP41       0.1436
     42  CG        -4.3230    9.0730   48.0330 C.2    41  ASP41       0.3671
     43  OD1       -5.4130    8.9110   48.6220 O.co2  41  ASP41      -0.2456
     44  OD2       -4.1500    9.1540   46.7950 O.co2  41  ASP41      -0.2456
     45  N          2.3570    8.3840   48.8680 N.3    43  GLU43      -0.1231
     46  CA         3.5740    8.3010   48.0220 C.3    43  GLU43       0.1699
     47  C          3.4840    9.2920   46.8610 C.2    43  GLU43       0.2592
     48  O          4.5540    9.7970   46.4960 O.2    43  GLU43      -0.2718
     49  CB         3.8590    6.9130   47.4680 C.3    43  GLU43       0.0402
     50  CG         3.9850    5.8370   48.5230 C.3    43  GLU43       0.1161
     51  CD         4.2760    4.5140   47.8390 C.2    43  GLU43       0.3649
     52  OE1        5.4740    4.2520   47.6500 O.co2  43  GLU43      -0.2457
     53  OE2        3.3730    3.7310   47.5140 O.co2  43  GLU43      -0.2457
     54  N          2.2810    9.5240   46.3580 N.am   44  LEU44      -0.1980
     55  CA         2.1440   10.4490   45.2240 C.3    44  LEU44       0.1596
     56  C          2.5460   11.8650   45.6160 C.2    44  LEU44       0.2287
     57  O          3.1550   12.5590   44.8040 O.2    44  LEU44      -0.2864
     58  CB         0.7630   10.3100   44.5720 C.3    44  LEU44       0.0297
     59  CG         0.5780    9.0050   43.8080 C.3    44  LEU44       0.0022
     60  CD1       -0.7910    8.7770   43.2010 C.3    44  LEU44       0.0001
     61  CD2        1.5780    8.9990   42.6590 C.3    44  LEU44       0.0001
     62  N          6.2410   11.7870   45.6850 N.3    47  MET47      -0.1230
     63  CA         6.8240   11.6520   44.3430 C.3    47  MET47       0.1702
     64  C          7.0140   13.0300   43.7220 C.2    47  MET47       0.2592
     65  O          8.0860   13.2960   43.1270 O.2    47  MET47      -0.2718
     66  CB         5.9220   10.7650   43.4580 C.3    47  MET47       0.0401
     67  CG         6.5590   10.5080   42.1060 C.3    47  MET47       0.0596
     68  SD         5.5300    9.6130   40.9700 S.3    47  MET47      -0.1393
     69  CE         5.0270    8.1740   41.8350 C.3    47  MET47       0.0692
     70  N          6.0270   13.9120   43.8670 N.am   48  ILE48      -0.1980
     71  CA         6.1390   15.2590   43.2830 C.3    48  ILE48       0.1595
     72  C          7.3550   15.9880   43.8350 C.2    48  ILE48       0.2287
     73  O          8.1530   16.5980   43.0780 O.2    48  ILE48      -0.2864
     74  CB         4.8070   15.9810   43.5360 C.3    48  ILE48       0.0276
     75  CG1        3.6880   15.3820   42.6500 C.3    48  ILE48       0.0022
     76  CG2        4.8200   17.4970   43.3550 C.3    48  ILE48       0.0022
     77  CD1        2.3070   15.8670   43.0860 C.3    48  ILE48       0.0001
     78  N          4.0880   18.4610   34.7240 N.3    66  VAL66      -0.1245
     79  CA         2.8370   17.7940   35.0390 C.3    66  VAL66       0.1561
     80  C          2.6340   16.6380   34.0840 C.2    66  VAL66       0.2260
     81  O          2.1800   15.5780   34.5500 O.2    66  VAL66      -0.2867
     82  CB         1.5890   18.7040   34.9860 C.3    66  VAL66       0.0252
     83  CG1        0.3050   17.9200   35.1940 C.3    66  VAL66       0.0019
     84  CG2        1.7390   19.7650   36.0640 C.3    66  VAL66       0.0019
     85  N          4.8460   13.4180   35.2140 N.3    69  LEU69      -0.1231
     86  CA         4.3700   12.7960   36.4410 C.3    69  LEU69       0.1693
     87  C          3.0550   12.0980   36.1750 C.2    69  LEU69       0.2591
     88  O          2.7620   11.0030   36.6680 O.2    69  LEU69      -0.2718
     89  CB         4.2220   13.8580   37.5210 C.3    69  LEU69       0.0284
     90  CG         5.5550   14.2110   38.1800 C.3    69  LEU69       0.0019
     91  CD1        5.5260   15.5610   38.8880 C.3    69  LEU69       0.0001
     92  CD2        5.9180   13.1000   39.1320 C.3    69  LEU69       0.0001
     93  N          2.2350   12.7350   35.3560 N.am   70  GLU70      -0.1979
     94  CA         0.9260   12.1660   35.0660 C.3    70  GLU70       0.1602
     95  C          0.9300   10.9110   34.2120 C.2    70  GLU70       0.2287
     96  O          0.0630   10.0390   34.3530 O.2    70  GLU70      -0.2864
     97  CB         0.0480   13.1800   34.3050 C.3    70  GLU70       0.0415
     98  CG        -1.3890   12.7080   34.3180 C.3    70  GLU70       0.1163
     99  CD        -2.3230   13.6200   33.5250 C.2    70  GLU70       0.3649
    100  OE1       -1.8090   14.4860   32.7800 O.co2  70  GLU70      -0.2457
    101  OE2       -3.5520   13.4170   33.6690 O.co2  70  GLU70      -0.2457
    102  N          3.4280    7.8020   36.5730 N.3    73  TRP73      -0.1227
    103  CA         3.4160    7.6760   38.0380 C.3    73  TRP73       0.1737
    104  C          3.2570    6.2460   38.5390 C.2    73  TRP73       0.2595
    105  O          3.9080    5.8740   39.5170 O.2    73  TRP73      -0.2718
    106  CB         2.3930    8.5790   38.7440 C.3    73  TRP73       0.0564
    107  CG         0.9800    8.3240   38.3920 C.ar   73  TRP73       0.0003
    108  CD1        0.2410    8.9820   37.4620 C.ar   73  TRP73       0.0946
    109  CD2        0.1090    7.3250   38.9390 C.ar   73  TRP73       0.0152
    110  NE1       -1.0280    8.4820   37.3990 N.ar   73  TRP73      -0.2442
    111  CE2       -1.1400    7.4550   38.2950 C.ar   73  TRP73       0.0810
    112  CE3        0.2550    6.3530   39.9360 C.ar   73  TRP73       0.0012
    113  CZ2       -2.2260    6.6560   38.6260 C.ar   73  TRP73       0.0191
    114  CZ3       -0.7970    5.5430   40.2470 C.ar   73  TRP73       0.0001
    115  CH2       -2.0200    5.7010   39.6040 C.ar   73  TRP73       0.0015
    116  N          2.4220    5.4200   37.9080 N.am   74  MET74      -0.1979
    117  CA         2.2770    4.0430   38.3620 C.3    74  MET74       0.1605
    118  C          3.5660    3.2690   38.1540 C.2    74  MET74       0.2287
    119  O          3.9360    2.3910   38.9390 O.2    74  MET74      -0.2864
    120  CB         1.0920    3.3550   37.6810 C.3    74  MET74       0.0413
    121  CG         0.8570    1.8990   38.0480 C.3    74  MET74       0.0598
    122  SD         0.5330    1.7130   39.8300 S.3    74  MET74      -0.1393
    123  CE        -1.2510    1.5560   39.7370 C.3    74  MET74       0.0692
    124  N          5.9950    4.1630   40.9110 N.3    77  LEU77      -0.1231
    125  CA         5.6020    3.4840   42.1490 C.3    77  LEU77       0.1693
    126  C          5.9950    1.9920   42.1170 C.2    77  LEU77       0.2591
    127  O          6.4720    1.5380   43.1480 O.2    77  LEU77      -0.2718
    128  CB         4.0780    3.4330   42.4620 C.3    77  LEU77       0.0284
    129  CG         3.4140    4.7600   42.7700 C.3    77  LEU77       0.0019
    130  CD1        1.8880    4.6090   42.8880 C.3    77  LEU77       0.0001
    131  CD2        3.9550    5.3990   44.0720 C.3    77  LEU77       0.0001
    132  N          5.7400    1.3300   40.9970 N.am   78  MET78      -0.1979
    133  CA         6.0430   -0.0950   40.9300 C.3    78  MET78       0.1605
    134  C          7.5280   -0.4260   41.0270 C.2    78  MET78       0.2287
    135  O          7.9290   -1.3710   41.7360 O.2    78  MET78      -0.2864
    136  CB         5.4590   -0.6640   39.6160 C.3    78  MET78       0.0413
    137  CG         3.9260   -0.7930   39.7120 C.3    78  MET78       0.0598
    138  SD         3.3080   -1.4040   38.1250 S.3    78  MET78      -0.1393
    139  CE         1.6950   -2.0090   38.5640 C.3    78  MET78       0.0692
    140  N          8.5510   -0.2880   44.5620 N.3    81  LEU81      -0.1245
    141  CA         8.0130   -1.4670   45.2200 C.3    81  LEU81       0.1561
    142  C          8.9010   -2.6680   44.8880 C.2    81  LEU81       0.2260
    143  O          9.1040   -3.4820   45.7700 O.2    81  LEU81      -0.2867
    144  CB         6.5980   -1.8070   44.7120 C.3    81  LEU81       0.0270
    145  CG         6.0400   -3.1680   45.1270 C.3    81  LEU81       0.0019
    146  CD1        5.8730   -3.3500   46.6380 C.3    81  LEU81       0.0001
    147  CD2        4.7530   -3.4920   44.3760 C.3    81  LEU81       0.0001
    148  N         12.0820   -2.2630   46.7470 N.3    84  ARG84      -0.1245
    149  CA        11.9300   -2.6350   48.1720 C.3    84  ARG84       0.1563
    150  C         11.7110   -4.1370   48.3390 C.2    84  ARG84       0.2260
    151  O         12.0070   -4.6240   49.4350 O.2    84  ARG84      -0.2867
    152  CB        10.7530   -1.8930   48.8370 C.3    84  ARG84       0.0307
    153  CG        10.9350   -0.3770   48.9570 C.3    84  ARG84       0.0489
    154  CD         9.7020    0.2200   49.6180 C.3    84  ARG84       0.2205
    155  NE         8.3840    0.0510   49.0170 N.pl3  84  ARG84      -0.0865
    156  CZ         7.9530    0.8440   48.0130 C.cat  84  ARG84       0.5346
    157  NH1        8.7160    1.8340   47.5030 N.pl3  84  ARG84       0.1354
    158  NH2        6.7320    0.5910   47.5610 N.pl3  84  ARG84       0.1354
    159  N          5.1680   -3.1100   50.2070 N.3    94  PHE94      -0.1298
    160  CA         4.4870   -1.8420   49.9390 C.3    94  PHE94       0.1290
    161  C          5.0000   -0.7480   50.8330 C.3    94  PHE94       0.2013
    162  O          5.1100    0.3440   50.2930 O.3    94  PHE94      -0.2188
    163  CB         2.9660   -2.0340   50.0830 C.3    94  PHE94       0.0480
    164  CG         2.4000   -2.6910   48.8290 C.ar   94  PHE94      -0.0206
    165  CD1        2.1900   -1.9480   47.6780 C.ar   94  PHE94      -0.0042
    166  CD2        2.1410   -4.0360   48.8250 C.ar   94  PHE94      -0.0042
    167  CE1        1.7150   -2.5740   46.5460 C.ar   94  PHE94      -0.0003
    168  CE2        1.6250   -4.6700   47.7150 C.ar   94  PHE94      -0.0003
    169  CZ         1.3960   -3.9190   46.5410 C.ar   94  PHE94      -0.0000
    170  N         -6.3320   -9.2030   41.9410 N.3   111  ILE111     -0.1245
    171  CA        -5.0510   -8.5890   42.3420 C.3   111  ILE111      0.1561
    172  C         -3.9500   -9.6330   42.3590 C.2   111  ILE111      0.2260
    173  O         -2.7720   -9.3650   42.1170 O.2   111  ILE111     -0.2867
    174  CB        -5.2090   -7.8060   43.6380 C.3   111  ILE111      0.0252
    175  CG1       -4.2360   -6.6250   43.7310 C.3   111  ILE111      0.0019
    176  CG2       -5.0700   -8.6810   44.8820 C.3   111  ILE111      0.0019
    177  CD1       -4.6660   -5.6200   44.7860 C.3   111  ILE111      0.0001
    178  N         -1.7000   -9.5910   39.3070 N.3   114  ILE114     -0.1231
    179  CA        -0.9160   -8.3870   39.3020 C.3   114  ILE114      0.1692
    180  C          0.1960   -8.5850   40.3490 C.2   114  ILE114      0.2592
    181  O          1.3520   -8.3140   40.0590 O.2   114  ILE114     -0.2718
    182  CB        -1.7050   -7.1070   39.6620 C.3   114  ILE114      0.0266
    183  CG1       -2.9490   -6.9320   38.8110 C.3   114  ILE114      0.0019
    184  CG2       -0.7980   -5.8870   39.6450 C.3   114  ILE114      0.0020
    185  CD1       -2.7940   -6.7820   37.3220 C.3   114  ILE114      0.0001
    186  N         -0.1330   -9.0960   41.5430 N.am  115  PHE115     -0.1976
    187  CA         0.9120   -9.3320   42.5350 C.3   115  PHE115      0.1639
    188  C          1.9880  -10.2390   41.9230 C.2   115  PHE115      0.2290
    189  O          3.1890   -9.9520   41.9590 O.2   115  PHE115     -0.2864
    190  CB         0.3140   -9.9370   43.7910 C.3   115  PHE115      0.0560
    191  CG        -0.2960   -8.9760   44.7780 C.ar  115  PHE115     -0.0200
    192  CD1       -0.4930   -7.6480   44.5010 C.ar  115  PHE115     -0.0042
    193  CD2       -0.6780   -9.4340   46.0350 C.ar  115  PHE115     -0.0042
    194  CE1       -1.0400   -6.8060   45.4160 C.ar  115  PHE115     -0.0003
    195  CE2       -1.2420   -8.5870   46.9640 C.ar  115  PHE115     -0.0003
    196  CZ        -1.4230   -7.2470   46.6740 C.ar  115  PHE115     -0.0000
    197  N          4.2000   -8.5420   39.5370 N.3   118  LEU118     -0.1245
    198  CA         5.1950   -7.7410   40.2630 C.3   118  LEU118      0.1561
    199  C          6.2760   -8.6460   40.8610 C.2   118  LEU118      0.2260
    200  O          7.4720   -8.2940   40.7570 O.2   118  LEU118     -0.2867
    201  CB         4.5940   -6.9030   41.4070 C.3   118  LEU118      0.0270
    202  CG         3.5080   -5.9500   40.9070 C.3   118  LEU118      0.0019
    203  CD1        2.6350   -5.4690   42.0750 C.3   118  LEU118      0.0001
    204  CD2        4.1710   -4.7650   40.2080 C.3   118  LEU118      0.0001
    205  N         -2.0530   -2.9580   35.8910 N.3   196  GLY196     -0.1225
    206  CA        -2.4770   -2.5460   37.2340 C.3   196  GLY196      0.1811
    207  C         -3.5280   -1.4370   37.0910 C.2   196  GLY196      0.2280
    208  O         -4.5070   -1.4080   37.8400 O.2   196  GLY196     -0.2866
    209  N         -6.7530   -2.7700   36.0040 N.3   199  HIS199     -0.1226
    210  CA        -7.2910   -3.4520   37.1800 C.3   199  HIS199      0.1752
    211  C         -7.9760   -2.4410   38.1080 C.2   199  HIS199      0.2595
    212  O         -8.9840   -2.6990   38.7650 O.2   199  HIS199     -0.2718
    213  CB        -6.2130   -4.2140   37.9590 C.3   199  HIS199      0.0759
    214  CG        -6.7730   -4.9510   39.1310 C.ar  199  HIS199      0.0818
    215  ND1       -6.2720   -4.8480   40.4210 N.ar  199  HIS199     -0.2268
    216  CD2       -7.8450   -5.8120   39.1920 C.ar  199  HIS199      0.1154
    217  CE1       -6.9960   -5.6170   41.2180 C.ar  199  HIS199      0.1986
    218  NE2       -7.9530   -6.2050   40.5020 N.ar  199  HIS199     -0.2212
    219  N         -7.4100   -1.2370   38.1830 N.am  200  LEU200     -0.1980
    220  CA        -7.9880   -0.1900   39.0080 C.3   200  LEU200      0.1596
    221  C         -9.2870    0.3510   38.3990 C.2   200  LEU200      0.2287
    222  O        -10.2530    0.5410   39.1290 O.2   200  LEU200     -0.2864
    223  CB        -7.0470    1.0000   39.1610 C.3   200  LEU200      0.0297
    224  CG        -6.1660    1.0700   40.4030 C.3   200  LEU200      0.0022
    225  CD1       -4.9440    1.9540   40.1740 C.3   200  LEU200      0.0001
    226  CD2       -6.9550    1.5970   41.5950 C.3   200  LEU200      0.0001
    227  N        -12.2500   -1.8320   38.7030 N.3   203  MET203     -0.1245
    228  CA       -12.5470   -1.8630   40.1240 C.3   203  MET203      0.1570
    229  C        -13.3390   -0.6750   40.6520 C.2   203  MET203      0.2261
    230  O        -14.4790   -0.7810   41.1160 O.2   203  MET203     -0.2867
    231  CB       -11.1970   -1.9220   40.8260 C.3   203  MET203      0.0387
    232  CG       -11.1430   -2.0690   42.3230 C.3   203  MET203      0.0595
    233  SD        -9.8700   -3.2940   42.7490 S.3   203  MET203     -0.1393
    234  CE       -10.6610   -4.7730   42.1040 C.3   203  MET203      0.0692
@<TRIPOS>BOND
     1   100    99   ar
     2    99   101   ar
     3    99    98    1
     4    80    81    2
     5    80    79    1
     6    95    96    2
     7    95    94    1
     8    97    98    1
     9    97    94    1
    10    78    79    1
    11    82    79    1
    12    82    83    1
    13    82    84    1
    14    94    93    1
    15    85    86    1
    16    93    87   am
    17   205   206    1
    18   209   210    1
    19    87    86    1
    20    87    88    2
    21    86    89    1
    22   102   103    1
    23   207   206    1
    24   207   208    2
    25   210   213    1
    26   210   211    1
    27   185   183    1
    28   110   108   ar
    29   110   111   ar
    30   108   107   ar
    31    89    90    1
    32   120   121    1
    33   120   117    1
    34   116   117    1
    35   116   104   am
    36   213   214    1
    37   103   104    1
    38   103   106    1
    39   121   122    1
    40   211   219   am
    41   211   212    2
    42   138   139    1
    43   138   137    1
    44   118   117    1
    45   118   119    2
    46    90    91    1
    47    90    92    1
    48   219   220    1
    49   111   113   ar
    50   111   109   ar
    51   107   106    1
    52   107   109   ar
    53   221   220    1
    54   221   222    2
    55   104   105    2
    56   113   115   ar
    57   227   228    1
    58   183   182    1
    59   109   112   ar
    60   220   223    1
    61   214   216   ar
    62   214   215   ar
    63   223   224    1
    64   216   218   ar
    65   179   178    1
    66   179   182    1
    67   179   180    1
    68   197   198    1
    69   115   114   ar
    70   136   137    1
    71   136   133    1
    72   184   182    1
    73   123   122    1
    74   112   114   ar
    75   181   180    2
    76   228   229    1
    77   228   231    1
    78   225   224    1
    79   204   202    1
    80   198   199    1
    81   198   201    1
    82   180   186   am
    83   224   226    1
    84   215   217   ar
    85   218   217   ar
    86   229   230    2
    87   200   199    2
    88   231   232    1
    89   202   201    1
    90   202   203    1
    91   124   125    1
    92   133   132    1
    93   133   134    1
    94    68    69    1
    95    68    67    1
    96   132   126   am
    97   134   135    2
    98   186   187    1
    99   188   189    2
   100   188   187    1
   101   170   171    1
   102   234   233    1
   103    67    66    1
   104   173   172    2
   105   126   125    1
   106   126   127    2
   107   125   128    1
   108   232   233    1
   109   171   172    1
   110   171   174    1
   111   128   129    1
   112   187   190    1
   113    75    77    1
   114    75    74    1
   115    61    59    1
   116   129   130    1
   117   129   131    1
   118    73    72    2
   119    65    64    2
   120    60    59    1
   121    71    74    1
   122    71    72    1
   123    71    70    1
   124    76    74    1
   125    66    63    1
   126   174   175    1
   127   174   176    1
   128    64    70   am
   129    64    63    1
   130   175   177    1
   131   190   191    1
   132    59    58    1
   133    63    62    1
   134   147   145    1
   135   192   191   ar
   136   192   194   ar
   137   140   141    1
   138    58    55    1
   139   144   145    1
   140   144   141    1
   141   191   193   ar
   142    57    56    2
   143   142   141    1
   144   142   143    2
   145     8     7    1
   146   145   146    1
   147    55    56    1
   148    55    54    1
   149   194   196   ar
   150     7     6    1
   151    36    33    1
   152   193   195   ar
   153    54    47   am
   154    48    47    2
   155   169   167   ar
   156   169   168   ar
   157   167   165   ar
   158   196   195   ar
   159    35    34    2
   160   148   149    1
   161    44    42   ar
   162     6     5    1
   163    47    46    1
   164    22    21    1
   165    33    34    1
   166    33    32    1
   167    34    37   am
   168    49    46    1
   169    49    50    1
   170   157   156    1
   171    53    51   ar
   172   158   156    1
   173    15    14    1
   174    52    51   ar
   175   165   164   ar
   176   168   166   ar
   177    51    50    1
   178     5     2    1
   179    37    38    1
   180   156   155    2
   181    46    45    1
   182    42    43   ar
   183    42    41    1
   184    38    39    1
   185    38    41    1
   186    40    39    2
   187    23    21    1
   188    21    18    1
   189   149   150    1
   190   149   152    1
   191    18    17    1
   192    18    19    1
   193    13    14    1
   194    13    10    1
   195   150   151    2
   196    12    11    2
   197    32    26   am
   198    20    19    2
   199    17    11   am
   200    14    16    1
   201    11    10    1
   202   166   164   ar
   203   164   163    1
   204   152   153    1
   205     2     3    1
   206     2     1    1
   207   153   154    1
   208   155   154    1
   209     4     3    2
   210    10     9    1
   211    26    27    2
   212    26    25    1
   213    31    29    1
   214   160   163    1
   215   160   159    1
   216   160   161    1
   217    29    28    1
   218    29    30    1
   219   162   161    1
   220    28    25    1
   221    25    24    1
