@<TRIPOS>MOLECULE
tmp/1hj6A00.pdb
 114 105 0 0 0
SMALL
GASTEIGER

@<TRIPOS>ATOM
      1  N        -60.5410  -90.8240   -2.7300 N.3   101  LEU101     -0.1245
      2  CA       -59.2710  -90.3750   -2.1700 C.3   101  LEU101      0.1561
      3  C        -59.4760  -89.5490   -0.9000 C.2   101  LEU101      0.2260
      4  O        -60.4260  -88.7720   -0.7970 O.2   101  LEU101     -0.2867
      5  CB       -58.5300  -89.5140   -3.1950 C.3   101  LEU101      0.0270
      6  CG       -57.1720  -89.9280   -3.7590 C.3   101  LEU101      0.0019
      7  CD1      -57.0940  -91.4310   -3.9910 C.3   101  LEU101      0.0001
      8  CD2      -56.9710  -89.1690   -5.0570 C.3   101  LEU101      0.0001
      9  N        -56.2140  -80.6290   -0.6560 N.3   111  GLU111     -0.1245
     10  CA       -57.1780  -81.6810   -0.9750 C.3   111  GLU111      0.1567
     11  C        -56.8130  -82.3260   -2.3100 C.2   111  GLU111      0.2260
     12  O        -56.8470  -81.6810   -3.3570 O.2   111  GLU111     -0.2867
     13  CB       -58.5950  -81.1110   -1.0270 C.3   111  GLU111      0.0388
     14  CG       -59.6460  -82.0630   -0.4650 C.3   111  GLU111      0.1160
     15  CD       -59.8140  -83.3090   -1.3220 C.2   111  GLU111      0.3649
     16  OE1      -59.9400  -83.1570   -2.5550 O.co2 111  GLU111     -0.2457
     17  OE2      -59.8180  -84.4340   -0.7710 O.co2 111  GLU111     -0.2457
     18  N        -58.3060  -84.5790   -4.2780 N.3   113  ASN113     -0.1225
     19  CA       -59.3150  -84.6870   -5.3260 C.3   113  ASN113      0.1785
     20  C        -59.4340  -83.3680   -6.0800 C.2   113  ASN113      0.2597
     21  O        -59.5170  -83.3450   -7.3080 O.2   113  ASN113     -0.2718
     22  CB       -60.6690  -85.0560   -4.7220 C.3   113  ASN113      0.1169
     23  CG       -60.6190  -86.3470   -3.9510 C.2   113  ASN113      0.2627
     24  OD1      -60.6410  -86.3500   -2.7190 O.2   113  ASN113     -0.2716
     25  ND2      -60.5430  -87.4610   -4.6700 N.am  113  ASN113     -0.0877
     26  N        -59.4420  -82.2700   -5.3370 N.am  114  VAL114     -0.1980
     27  CA       -59.5510  -80.9560   -5.9380 C.3   114  VAL114      0.1595
     28  C        -58.2590  -80.6300   -6.6860 C.2   114  VAL114      0.2287
     29  O        -58.2820  -79.9320   -7.7040 O.2   114  VAL114     -0.2864
     30  CB       -59.8340  -79.8770   -4.8620 C.3   114  VAL114      0.0276
     31  CG1      -59.8260  -78.4910   -5.4900 C.3   114  VAL114      0.0022
     32  CG2      -61.1850  -80.1500   -4.2040 C.3   114  VAL114      0.0022
     33  N        -58.4720  -82.2800  -10.1950 N.3   117  ARG117     -0.1245
     34  CA       -59.3930  -81.5340  -11.0490 C.3   117  ARG117      0.1563
     35  C        -58.8400  -80.1940  -11.5070 C.2   117  ARG117      0.2260
     36  O        -58.9630  -79.8250  -12.6730 O.2   117  ARG117     -0.2867
     37  CB       -60.7020  -81.2730  -10.3140 C.3   117  ARG117      0.0307
     38  CG       -61.4130  -82.5100   -9.8580 C.3   117  ARG117      0.0489
     39  CD       -62.4800  -82.1400   -8.8540 C.3   117  ARG117      0.2205
     40  NE       -63.1310  -83.3220   -8.3110 N.pl3 117  ARG117     -0.0865
     41  CZ       -63.9750  -83.3020   -7.2870 C.cat 117  ARG117      0.5346
     42  NH1      -64.2740  -82.1540   -6.6900 N.pl3 117  ARG117      0.1354
     43  NH2      -64.5150  -84.4320   -6.8600 N.pl3 117  ARG117      0.1354
     44  N        -72.3880  -85.2040  -13.1640 N.3   127  ARG127     -0.1245
     45  CA       -72.9840  -86.2180  -12.2970 C.3   127  ARG127      0.1563
     46  C        -74.4460  -86.4800  -12.6420 C.2   127  ARG127      0.2260
     47  O        -75.3470  -85.7470  -12.2240 O.2   127  ARG127     -0.2867
     48  CB       -72.8410  -85.8010  -10.8310 C.3   127  ARG127      0.0307
     49  CG       -71.3960  -85.4990  -10.4650 C.3   127  ARG127      0.0489
     50  CD       -71.2090  -85.1190   -9.0080 C.3   127  ARG127      0.2205
     51  NE       -69.9030  -85.5580   -8.5170 N.pl3 127  ARG127     -0.0865
     52  CZ       -69.4000  -85.2430   -7.3270 C.cat 127  ARG127      0.5346
     53  NH1      -70.0930  -84.4790   -6.4930 N.pl3 127  ARG127      0.1354
     54  NH2      -68.2080  -85.7060   -6.9660 N.pl3 127  ARG127      0.1354
     55  N        -71.6510  -79.3320  -12.8650 N.3   151  ARG151     -0.1245
     56  CA       -71.1090  -78.5400  -11.7770 C.3   151  ARG151      0.1563
     57  C        -69.7790  -77.8990  -12.1660 C.2   151  ARG151      0.2260
     58  O        -68.8570  -78.5960  -12.5870 O.2   151  ARG151     -0.2867
     59  CB       -70.9570  -79.4550  -10.5490 C.3   151  ARG151      0.0307
     60  CG       -70.0320  -78.9630   -9.4470 C.3   151  ARG151      0.0489
     61  CD       -69.6760  -80.0890   -8.4750 C.3   151  ARG151      0.2205
     62  NE       -68.8000  -79.5900   -7.4190 N.pl3 151  ARG151     -0.0865
     63  CZ       -68.1300  -80.3510   -6.5600 C.cat 151  ARG151      0.5346
     64  NH1      -68.2240  -81.6700   -6.6160 N.pl3 151  ARG151      0.1354
     65  NH2      -67.3630  -79.7810   -5.6400 N.pl3 151  ARG151      0.1354
     66  N        -63.8610  -73.1550   -3.9170 N.3   158  TYR158     -0.1241
     67  CA       -62.9090  -74.2560   -4.0540 C.3   158  TYR158      0.1605
     68  C        -61.5240  -73.7840   -4.5070 C.2   158  TYR158      0.2264
     69  O        -60.5910  -74.5790   -4.6060 O.2   158  TYR158     -0.2867
     70  CB       -63.4480  -75.2920   -5.0450 C.3   158  TYR158      0.0534
     71  CG       -64.4850  -76.2180   -4.4480 C.ar  158  TYR158     -0.0201
     72  CD1      -64.1910  -77.5620   -4.2050 C.ar  158  TYR158     -0.0009
     73  CD2      -65.7560  -75.7490   -4.1060 C.ar  158  TYR158     -0.0009
     74  CE1      -65.1350  -78.4170   -3.6320 C.ar  158  TYR158      0.0417
     75  CE2      -66.7080  -76.5980   -3.5300 C.ar  158  TYR158      0.0417
     76  CZ       -66.3890  -77.9290   -3.2950 C.ar  158  TYR158      0.1957
     77  OH       -67.3140  -78.7610   -2.7040 O.3   158  TYR158     -0.2866
     78  N        -71.9110  -79.5280   -5.4770 N.3   305  ASP305     -0.1239
     79  CA       -71.4830  -80.5380   -4.5200 C.3   305  ASP305      0.1674
     80  C        -72.6730  -80.9290   -3.6490 C.2   305  ASP305      0.2266
     81  O        -72.9090  -82.1070   -3.3960 O.2   305  ASP305     -0.2867
     82  CB       -70.3590  -79.9810   -3.6390 C.3   305  ASP305      0.1410
     83  CG       -69.9360  -80.9470   -2.5500 C.2   305  ASP305      0.3668
     84  OD1      -69.5950  -82.0950   -2.8950 O.co2 305  ASP305     -0.2456
     85  OD2      -69.9450  -80.5650   -1.3550 O.co2 305  ASP305     -0.2456
     86  N        -75.3670  -84.7880   -3.8270 N.3   309  ASP309     -0.1239
     87  CA       -75.7350  -85.6870   -2.7330 C.3   309  ASP309      0.1674
     88  C        -77.2290  -85.6910   -2.4240 C.2   309  ASP309      0.2266
     89  O        -77.7950  -86.7380   -2.1170 O.2   309  ASP309     -0.2867
     90  CB       -74.9460  -85.3300   -1.4700 C.3   309  ASP309      0.1410
     91  CG       -73.5330  -85.8870   -1.4890 C.2   309  ASP309      0.3668
     92  OD1      -72.8770  -85.8180   -2.5500 O.co2 309  ASP309     -0.2456
     93  OD2      -73.0720  -86.3960   -0.4480 O.co2 309  ASP309     -0.2456
     94  N        -64.9640  -90.6840  -11.7640 N.3   334  GLU334     -0.1231
     95  CA       -64.9470  -91.0120  -10.3480 C.3   334  GLU334      0.1699
     96  C        -66.3470  -90.9280   -9.7560 C.2   334  GLU334      0.2592
     97  O        -67.1700  -90.1240  -10.1960 O.2   334  GLU334     -0.2718
     98  CB       -64.0160  -90.0490   -9.6010 C.3   334  GLU334      0.0402
     99  CG       -64.6060  -88.6640   -9.3710 C.3   334  GLU334      0.1161
    100  CD       -63.8650  -87.8660   -8.3050 C.2   334  GLU334      0.3649
    101  OE1      -63.9820  -86.6230   -8.2980 O.co2 334  GLU334     -0.2457
    102  OE2      -63.1650  -88.4800   -7.4750 O.co2 334  GLU334     -0.2457
    103  N        -66.6090  -91.7650   -8.7550 N.am  335  ALA335     -0.1966
    104  CA       -67.9050  -91.7850   -8.0830 C.3   335  ALA335      0.1728
    105  C        -68.0300  -90.5600   -7.1800 C.2   335  ALA335      0.2616
    106  O        -67.0260  -89.9640   -6.7870 O.2   335  ALA335     -0.2715
    107  CB       -68.0410  -93.0550   -7.2540 C.3   335  ALA335      0.0334
    108  N        -69.2620  -90.1910   -6.8510 N.am  336  THR336     -0.1951
    109  CA       -69.5010  -89.0390   -5.9890 C.3   336  THR336      0.1897
    110  C        -69.0790  -89.3100   -4.5420 C.2   336  THR336      0.2313
    111  O        -68.6740  -88.3960   -3.8310 O.2   336  THR336     -0.2863
    112  CB       -70.9990  -88.6470   -5.9990 C.3   336  THR336      0.1794
    113  OG1      -71.4010  -88.3220   -7.3350 O.3   336  THR336     -0.2208
    114  CG2      -71.2520  -87.4420   -5.0950 C.3   336  THR336      0.0378
@<TRIPOS>BOND
     1    44    45    1
     2    55    56    1
     3    36    35    2
     4    46    45    1
     5    46    47    2
     6    58    57    2
     7    45    48    1
     8    57    56    1
     9    56    59    1
    10    94    95    1
    11    35    34    1
    12    34    37    1
    13    34    33    1
    14    48    49    1
    15    59    60    1
    16    49    50    1
    17    95    96    1
    18    95    98    1
    19    37    38    1
    20    97    96    2
    21    38    39    1
    22    96   103   am
    23    98    99    1
    24    60    61    1
    25    99   100    1
    26    50    51    1
    27    39    40    1
    28   103   104    1
    29    51    52    2
    30    61    62    1
    31    40    41    2
    32   100   101   ar
    33   100   102   ar
    34   104   107    1
    35   104   105    1
    36    29    28    2
    37    62    63    2
    38   113   112    1
    39    52    54    1
    40    52    53    1
    41    21    20    2
    42    41    43    1
    43    41    42    1
    44   105   108   am
    45   105   106    2
    46   108   109    1
    47    28    27    1
    48    64    63    1
    49    63    65    1
    50    20    26   am
    51    20    19    1
    52   112   109    1
    53   112   114    1
    54   109   110    1
    55    27    26    1
    56    27    30    1
    57    31    30    1
    58    78    79    1
    59    19    22    1
    60    19    18    1
    61     8     6    1
    62    70    71    1
    63    70    67    1
    64    30    32    1
    65    22    23    1
    66    25    23   am
    67    69    68    2
    68   110   111    2
    69    79    80    1
    70    79    82    1
    71    68    67    1
    72    71    72   ar
    73    71    73   ar
    74    72    74   ar
    75    73    75   ar
    76    67    66    1
    77     7     6    1
    78    23    24    2
    79    86    87    1
    80     6     5    1
    81    80    81    2
    82    82    83    1
    83    74    76   ar
    84    75    76   ar
    85    12    11    2
    86    76    77    1
    87     5     2    1
    88    84    83   ar
    89    87    88    1
    90    87    90    1
    91     1     2    1
    92    16    15   ar
    93    83    85   ar
    94    92    91   ar
    95    88    89    2
    96    11    10    1
    97     2     3    1
    98    91    90    1
    99    91    93   ar
   100    15    17   ar
   101    15    14    1
   102    13    10    1
   103    13    14    1
   104    10     9    1
   105     3     4    2
