@<TRIPOS>MOLECULE
tmp/1hjfA00.pdb
 122 112 0 0 0
SMALL
GASTEIGER

@<TRIPOS>ATOM
      1  N         18.7570  -10.6120    4.1070 N.3   154  ARG154     -0.1245
      2  CA        18.4830   -9.7200    5.2310 C.3   154  ARG154      0.1563
      3  C         19.1430  -10.1840    6.5250 C.2   154  ARG154      0.2260
      4  O         19.3090  -11.3800    6.7580 O.2   154  ARG154     -0.2867
      5  CB        16.9710   -9.5930    5.4640 C.3   154  ARG154      0.0307
      6  CG        16.1650   -9.0600    4.2810 C.3   154  ARG154      0.0489
      7  CD        15.7250  -10.1770    3.3380 C.3   154  ARG154      0.2205
      8  NE        14.8340   -9.6960    2.2800 N.pl3 154  ARG154     -0.0865
      9  CZ        13.6400   -9.1430    2.4900 C.cat 154  ARG154      0.5346
     10  NH1       13.1780   -8.9940    3.7240 N.pl3 154  ARG154      0.1354
     11  NH2       12.9030   -8.7420    1.4620 N.pl3 154  ARG154      0.1354
     12  N          7.0360   -9.2450    9.4860 N.3   160  MET160     -0.1245
     13  CA         6.5210   -9.1430    8.1250 C.3   160  MET160      0.1570
     14  C          5.0610   -9.5900    8.0710 C.2   160  MET160      0.2261
     15  O          4.7150  -10.6790    8.5350 O.2   160  MET160     -0.2867
     16  CB         7.3840   -9.9850    7.1810 C.3   160  MET160      0.0387
     17  CG         6.8920  -10.0340    5.7490 C.3   160  MET160      0.0595
     18  SD         8.1790  -10.5570    4.5940 S.3   160  MET160     -0.1393
     19  CE         8.1200   -9.1970    3.4050 C.3   160  MET160      0.0692
     20  N          1.2180  -12.3300    3.4210 N.3   163  HIS163     -0.1241
     21  CA         1.2030  -12.0340    1.9950 C.3   163  HIS163      0.1621
     22  C          1.5360  -13.2870    1.2020 C.2   163  HIS163      0.2264
     23  O          1.8900  -14.3230    1.7710 O.2   163  HIS163     -0.2867
     24  CB         2.2720  -10.9910    1.6630 C.3   163  HIS163      0.0745
     25  CG         3.6700  -11.5040    1.8230 C.ar  163  HIS163      0.0817
     26  ND1        4.3330  -11.5800    3.0270 N.ar  163  HIS163     -0.2268
     27  CD2        4.5140  -12.0450    0.9060 C.ar  163  HIS163      0.1154
     28  CE1        5.5290  -12.1560    2.8080 C.ar  163  HIS163      0.1986
     29  NE2        5.6840  -12.4580    1.5340 N.ar  163  HIS163     -0.2212
     30  N          3.6510  -14.4870   -2.5310 N.3   165  ASP165     -0.1239
     31  CA         4.6820  -14.0000   -3.4440 C.3   165  ASP165      0.1674
     32  C          4.1670  -14.0290   -4.8850 C.2   165  ASP165      0.2266
     33  O          3.3380  -14.8810   -5.2320 O.2   165  ASP165     -0.2867
     34  CB         5.9570  -14.8640   -3.2810 C.3   165  ASP165      0.1410
     35  CG         6.6100  -14.7030   -1.8910 C.2   165  ASP165      0.3668
     36  OD1        6.0740  -13.9730   -1.0550 O.co2 165  ASP165     -0.2456
     37  OD2        7.6620  -15.3030   -1.6110 O.co2 165  ASP165     -0.2456
     38  N         14.1390  -20.1260   -0.1500 N.3   172  ILE172     -0.1245
     39  CA        14.5280  -19.5150    1.1160 C.3   172  ILE172      0.1561
     40  C         15.4820  -20.3280    1.9830 C.2   172  ILE172      0.2260
     41  O         15.2790  -21.5190    2.1930 O.2   172  ILE172     -0.2867
     42  CB        13.2630  -19.2330    1.9690 C.3   172  ILE172      0.0252
     43  CG1       12.2990  -18.3490    1.1720 C.3   172  ILE172      0.0019
     44  CG2       13.6430  -18.5490    3.2880 C.3   172  ILE172      0.0019
     45  CD1       10.8970  -18.3930    1.6850 C.3   172  ILE172      0.0001
     46  N         17.3780  -20.1770    5.8200 N.3   174  GLN174     -0.1245
     47  CA        17.3520  -19.5040    7.1140 C.3   174  GLN174      0.1566
     48  C         18.4670  -19.9750    8.0400 C.2   174  GLN174      0.2260
     49  O         19.3040  -20.7950    7.6580 O.2   174  GLN174     -0.2867
     50  CB        16.0030  -19.7430    7.7930 C.3   174  GLN174      0.0367
     51  CG        14.8140  -19.1730    7.0400 C.3   174  GLN174      0.0905
     52  CD        13.4920  -19.7070    7.5610 C.2   174  GLN174      0.2608
     53  OE1       13.1390  -20.8680    7.3290 O.2   174  GLN174     -0.2717
     54  NE2       12.7590  -18.8670    8.2790 N.am  174  GLN174     -0.0878
     55  N          9.2680  -17.8380   10.6380 N.3   180  LEU180     -0.1245
     56  CA         8.5310  -18.0650    9.4040 C.3   180  LEU180      0.1561
     57  C          7.3350  -19.0010    9.5740 C.2   180  LEU180      0.2260
     58  O          7.4870  -20.1430   10.0020 O.2   180  LEU180     -0.2867
     59  CB         9.4770  -18.6200    8.3410 C.3   180  LEU180      0.0270
     60  CG         8.8880  -18.7820    6.9400 C.3   180  LEU180      0.0019
     61  CD1        8.3650  -17.4410    6.4520 C.3   180  LEU180      0.0001
     62  CD2        9.9510  -19.3140    5.9990 C.3   180  LEU180      0.0001
     63  N          8.6480  -21.7690   -1.8830 N.3   201  PHE201     -0.1241
     64  CA         7.2920  -21.2230   -1.8410 C.3   201  PHE201      0.1605
     65  C          6.8970  -21.0210   -3.2940 C.2   201  PHE201      0.2264
     66  O          7.6570  -20.4240   -4.0600 O.2   201  PHE201     -0.2867
     67  CB         7.2350  -19.8360   -1.1840 C.3   201  PHE201      0.0534
     68  CG         7.2090  -19.8410    0.3180 C.ar  201  PHE201     -0.0203
     69  CD1        6.4760  -20.7820    1.0290 C.ar  201  PHE201     -0.0042
     70  CD2        7.8460  -18.8250    1.0230 C.ar  201  PHE201     -0.0042
     71  CE1        6.3750  -20.7050    2.4250 C.ar  201  PHE201     -0.0003
     72  CE2        7.7520  -18.7390    2.4130 C.ar  201  PHE201     -0.0003
     73  CZ         7.0150  -19.6800    3.1150 C.ar  201  PHE201     -0.0000
     74  N          1.9520  -16.3670    3.7990 N.3   219  HIS219     -0.1241
     75  CA         2.9060  -16.5700    4.8820 C.3   219  HIS219      0.1621
     76  C          3.2990  -15.2440    5.5190 C.2   219  HIS219      0.2264
     77  O          2.9890  -14.1690    4.9830 O.2   219  HIS219     -0.2867
     78  CB         4.1590  -17.2900    4.3700 C.3   219  HIS219      0.0745
     79  CG         4.7160  -16.7130    3.1040 C.ar  219  HIS219      0.0817
     80  ND1        4.1850  -16.9400    1.8530 N.ar  219  HIS219     -0.2268
     81  CD2        5.7800  -15.8920    2.9090 C.ar  219  HIS219      0.1154
     82  CE1        4.9290  -16.2640    0.9610 C.ar  219  HIS219      0.1986
     83  NE2        5.9080  -15.6120    1.5570 N.ar  219  HIS219     -0.2212
     84  N          6.0520  -13.3800    8.9900 N.3   221  VAL221     -0.1245
     85  CA         7.1510  -13.5120    9.9380 C.3   221  VAL221      0.1561
     86  C          6.8280  -12.9030   11.2960 C.2   221  VAL221      0.2260
     87  O          6.4450  -11.7360   11.3890 O.2   221  VAL221     -0.2867
     88  CB         8.4250  -12.8230    9.4210 C.3   221  VAL221      0.0252
     89  CG1        9.5390  -12.9430   10.4550 C.3   221  VAL221      0.0019
     90  CG2        8.8490  -13.4380    8.1180 C.3   221  VAL221      0.0019
     91  N         18.2230  -14.2320    6.7150 N.3   228  SER228     -0.1217
     92  CA        17.4960  -15.0530    5.7590 C.3   228  SER228      0.1889
     93  C         17.8580  -14.6760    4.3310 C.2   228  SER228      0.2288
     94  O         18.1190  -13.5110    4.0230 O.2   228  SER228     -0.2866
     95  CB        15.9810  -14.9190    5.9590 C.3   228  SER228      0.2089
     96  OG        15.5140  -13.6370    5.5800 O.3   228  SER228     -0.2183
     97  N         16.5250  -14.8510    0.4430 N.3   230  VAL230     -0.1245
     98  CA        15.3190  -15.0130   -0.3550 C.3   230  VAL230      0.1561
     99  C         15.6150  -14.8040   -1.8330 C.2   230  VAL230      0.2260
    100  O         16.0650  -13.7320   -2.2410 O.2   230  VAL230     -0.2867
    101  CB        14.2370  -14.0080    0.0730 C.3   230  VAL230      0.0252
    102  CG1       12.9460  -14.2870   -0.6720 C.3   230  VAL230      0.0019
    103  CG2       14.0330  -14.0870    1.5740 C.3   230  VAL230      0.0019
    104  N         13.8770  -14.8380   -5.4990 N.3   232  PHE232     -0.1241
    105  CA        12.6620  -14.7980   -6.2980 C.3   232  PHE232      0.1605
    106  C         12.9850  -15.1230   -7.7580 C.2   232  PHE232      0.2264
    107  O         13.8320  -14.4600   -8.3510 O.2   232  PHE232     -0.2867
    108  CB        12.0580  -13.3880   -6.3010 C.3   232  PHE232      0.0534
    109  CG        11.6410  -12.8690   -4.9520 C.ar  232  PHE232     -0.0203
    110  CD1       10.6020  -13.4620   -4.2450 C.ar  232  PHE232     -0.0042
    111  CD2       12.2260  -11.7160   -4.4370 C.ar  232  PHE232     -0.0042
    112  CE1       10.1470  -12.9050   -3.0470 C.ar  232  PHE232     -0.0003
    113  CE2       11.7790  -11.1540   -3.2400 C.ar  232  PHE232     -0.0003
    114  CZ        10.7390  -11.7470   -2.5480 C.ar  232  PHE232     -0.0000
    115  N          5.6090   -9.0870   -3.7750 N.3   273  ILE273     -0.1245
    116  CA         4.6270   -9.6760   -2.8840 C.3   273  ILE273      0.1561
    117  C          3.2930   -8.9600   -2.9570 C.2   273  ILE273      0.2260
    118  O          3.1800   -7.8750   -3.5370 O.2   273  ILE273     -0.2867
    119  CB         5.1320   -9.6330   -1.4270 C.3   273  ILE273      0.0252
    120  CG1        5.2270   -8.1830   -0.9530 C.3   273  ILE273      0.0019
    121  CG2        6.5090  -10.2870   -1.3370 C.3   273  ILE273      0.0019
    122  CD1        5.5330   -8.0310    0.5230 C.3   273  ILE273      0.0001
@<TRIPOS>BOND
     1   107   106    2
     2   106   105    1
     3   108   105    1
     4   108   109    1
     5   105   104    1
     6    33    32    2
     7   109   111   ar
     8   109   110   ar
     9    32    31    1
    10   111   113   ar
    11   110   112   ar
    12    66    65    2
    13   115   116    1
    14   118   117    2
    15    31    34    1
    16    31    30    1
    17    65    64    1
    18    34    35    1
    19   113   114   ar
    20   112   114   ar
    21   117   116    1
    22   116   119    1
    23   100    99    2
    24    35    37   ar
    25    35    36   ar
    26    63    64    1
    27    64    67    1
    28    99    98    1
    29   119   121    1
    30   119   120    1
    31    67    68    1
    32   120   122    1
    33   102   101    1
    34    98   101    1
    35    98    97    1
    36    38    39    1
    37   101   103    1
    38    68    70   ar
    39    68    69   ar
    40    27    29   ar
    41    27    25   ar
    42    82    83   ar
    43    82    80   ar
    44    70    72   ar
    45    69    71   ar
    46    39    42    1
    47    39    40    1
    48    43    45    1
    49    43    42    1
    50    22    23    2
    51    22    21    1
    52    11     9    1
    53    29    28   ar
    54    83    81   ar
    55    24    25    1
    56    24    21    1
    57    25    26   ar
    58    80    79   ar
    59    42    44    1
    60    40    41    2
    61    21    20    1
    62     8     9    2
    63     8     7    1
    64    72    73   ar
    65    71    73   ar
    66     9    10    1
    67    28    26   ar
    68    81    79   ar
    69    79    78    1
    70     7     6    1
    71    19    18    1
    72    74    75    1
    73    94    93    2
    74     1     2    1
    75     6     5    1
    76    93    92    1
    77    78    75    1
    78    18    17    1
    79    75    76    1
    80    77    76    2
    81     2     5    1
    82     2     3    1
    83    96    95    1
    84    17    16    1
    85    92    95    1
    86    92    91    1
    87    46    47    1
    88    62    60    1
    89    61    60    1
    90     3     4    2
    91    60    59    1
    92    51    52    1
    93    51    50    1
    94    47    50    1
    95    47    48    1
    96    16    13    1
    97    53    52    2
    98    52    54   am
    99    49    48    2
   100    14    13    1
   101    14    15    2
   102    90    88    1
   103    13    12    1
   104    59    56    1
   105    84    85    1
   106    56    57    1
   107    56    55    1
   108    88    85    1
   109    88    89    1
   110    57    58    2
   111    85    86    1
   112    86    87    2
