@<TRIPOS>MOLECULE
tmp/1hjgA00.pdb
 133 123 0 0 0
SMALL
GASTEIGER

@<TRIPOS>ATOM
      1  N         18.9200  -10.6790    4.4660 N.3   145  ARG145     -0.1245
      2  CA        18.6000   -9.7660    5.5550 C.3   145  ARG145      0.1563
      3  C         19.2240  -10.1910    6.8800 C.2   145  ARG145      0.2260
      4  O         19.2930  -11.3770    7.2010 O.2   145  ARG145     -0.2867
      5  CB        17.0790   -9.6470    5.6810 C.3   145  ARG145      0.0307
      6  CG        16.4350   -9.0700    4.4270 C.3   145  ARG145      0.0489
      7  CD        14.9950   -9.5210    4.2530 C.3   145  ARG145      0.2205
      8  NE        14.4950   -9.1960    2.9190 N.pl3 145  ARG145     -0.0865
      9  CZ        13.4020   -9.7230    2.3770 C.cat 145  ARG145      0.5346
     10  NH1       12.6840  -10.6080    3.0540 N.pl3 145  ARG145      0.1354
     11  NH2       13.0280   -9.3680    1.1540 N.pl3 145  ARG145      0.1354
     12  N         18.9300   -9.4690   10.9180 N.3   147  PHE147     -0.1241
     13  CA        18.1470   -8.8910   12.0080 C.3   147  PHE147      0.1605
     14  C         18.8550   -9.0840   13.3480 C.2   147  PHE147      0.2264
     15  O         18.4600   -9.9340   14.1450 O.2   147  PHE147     -0.2867
     16  CB        16.7630   -9.5480   12.0890 C.3   147  PHE147      0.0534
     17  CG        16.0650   -9.6830   10.7650 C.ar  147  PHE147     -0.0203
     18  CD1       16.5170  -10.5920    9.8130 C.ar  147  PHE147     -0.0042
     19  CD2       14.9410   -8.9170   10.4770 C.ar  147  PHE147     -0.0042
     20  CE1       15.8590  -10.7380    8.5950 C.ar  147  PHE147     -0.0003
     21  CE2       14.2760   -9.0540    9.2600 C.ar  147  PHE147     -0.0003
     22  CZ        14.7360   -9.9670    8.3180 C.ar  147  PHE147     -0.0000
     23  N          6.6310   -9.1530   10.0190 N.3   151  MET151     -0.1245
     24  CA         6.2640   -9.0840    8.6080 C.3   151  MET151      0.1570
     25  C          4.8260   -9.5630    8.4530 C.2   151  MET151      0.2261
     26  O          4.5060  -10.7110    8.7650 O.2   151  MET151     -0.2867
     27  CB         7.2020   -9.9380    7.7450 C.3   151  MET151      0.0387
     28  CG         6.7660  -10.0210    6.2850 C.3   151  MET151      0.0595
     29  SD         8.0620  -10.5280    5.1330 S.3   151  MET151     -0.1393
     30  CE         8.3550   -8.9840    4.2630 C.3   151  MET151      0.0692
     31  N          1.2190  -12.3620    3.8270 N.3   154  HIS154     -0.1241
     32  CA         1.2100  -12.0640    2.4010 C.3   154  HIS154      0.1621
     33  C          1.5530  -13.3130    1.6100 C.2   154  HIS154      0.2264
     34  O          1.9410  -14.3340    2.1830 O.2   154  HIS154     -0.2867
     35  CB         2.2830  -11.0210    2.0830 C.3   154  HIS154      0.0745
     36  CG         3.6790  -11.5350    2.2700 C.ar  154  HIS154      0.0817
     37  ND1        4.3100  -11.6350    3.4910 N.ar  154  HIS154     -0.2268
     38  CD2        4.5450  -12.0610    1.3670 C.ar  154  HIS154      0.1154
     39  CE1        5.5090  -12.2070    3.2960 C.ar  154  HIS154      0.1986
     40  NE2        5.6990  -12.4840    2.0210 N.ar  154  HIS154     -0.2212
     41  N          3.6410  -14.5680   -2.1420 N.3   156  ASP156     -0.1239
     42  CA         4.6620  -14.1060   -3.0810 C.3   156  ASP156      0.1674
     43  C          4.1390  -14.0610   -4.5160 C.2   156  ASP156      0.2266
     44  O          3.2900  -14.8640   -4.8970 O.2   156  ASP156     -0.2867
     45  CB         5.8970  -15.0240   -3.0150 C.3   156  ASP156      0.1410
     46  CG         6.6980  -14.8530   -1.7280 C.2   156  ASP156      0.3668
     47  OD1        6.2500  -14.1200   -0.8200 O.co2 156  ASP156     -0.2456
     48  OD2        7.7890  -15.4560   -1.6180 O.co2 156  ASP156     -0.2456
     49  N         14.1770  -20.0810    0.3060 N.3   163  ILE163     -0.1245
     50  CA        14.5830  -19.4620    1.5670 C.3   163  ILE163      0.1561
     51  C         15.5000  -20.3580    2.3970 C.2   163  ILE163      0.2260
     52  O         15.2300  -21.5450    2.5530 O.2   163  ILE163     -0.2867
     53  CB        13.3420  -19.1430    2.4310 C.3   163  ILE163      0.0252
     54  CG1       12.3610  -18.2760    1.6350 C.3   163  ILE163      0.0019
     55  CG2       13.7640  -18.4440    3.7130 C.3   163  ILE163      0.0019
     56  CD1       11.0680  -18.0030    2.3580 C.3   163  ILE163      0.0001
     57  N         17.4820  -19.0000    5.6230 N.3   165  GLN165     -0.1245
     58  CA        17.4450  -18.5890    7.0290 C.3   165  GLN165      0.1566
     59  C         18.4620  -19.3010    7.9210 C.2   165  GLN165      0.2260
     60  O         19.2570  -20.1190    7.4570 O.2   165  GLN165     -0.2867
     61  CB        16.0490  -18.8090    7.6150 C.3   165  GLN165      0.0367
     62  CG        14.9660  -17.9460    7.0050 C.3   165  GLN165      0.0905
     63  CD        13.6920  -17.9620    7.8240 C.2   165  GLN165      0.2608
     64  OE1       13.1230  -19.0230    8.0890 O.2   165  GLN165     -0.2717
     65  NE2       13.2370  -16.7830    8.2350 N.am  165  GLN165     -0.0878
     66  N          9.2870  -17.8270   11.1470 N.3   170  LEU170     -0.1245
     67  CA         8.5850  -18.0330    9.8850 C.3   170  LEU170      0.1561
     68  C          7.4170  -19.0080   10.0170 C.2   170  LEU170      0.2260
     69  O          7.5740  -20.1150   10.5300 O.2   170  LEU170     -0.2867
     70  CB         9.5610  -18.5350    8.8190 C.3   170  LEU170      0.0270
     71  CG         9.0040  -18.6250    7.3950 C.3   170  LEU170      0.0019
     72  CD1        8.4740  -17.2620    6.9630 C.3   170  LEU170      0.0001
     73  CD2       10.0960  -19.0970    6.4470 C.3   170  LEU170      0.0001
     74  N          8.6910  -21.7610   -1.3850 N.3   191  PHE191     -0.1241
     75  CA         7.3190  -21.2490   -1.3800 C.3   191  PHE191      0.1605
     76  C          6.9410  -21.0640   -2.8420 C.2   191  PHE191      0.2264
     77  O          7.7180  -20.4880   -3.6120 O.2   191  PHE191     -0.2867
     78  CB         7.2070  -19.8620   -0.7330 C.3   191  PHE191      0.0534
     79  CG         7.2020  -19.8550    0.7680 C.ar  191  PHE191     -0.0203
     80  CD1        6.4280  -20.7560    1.4900 C.ar  191  PHE191     -0.0042
     81  CD2        7.9120  -18.8820    1.4610 C.ar  191  PHE191     -0.0042
     82  CE1        6.3610  -20.6810    2.8840 C.ar  191  PHE191     -0.0003
     83  CE2        7.8510  -18.7990    2.8500 C.ar  191  PHE191     -0.0003
     84  CZ         7.0750  -19.6980    3.5620 C.ar  191  PHE191     -0.0000
     85  N          1.9550  -16.3880    4.1950 N.3   209  HIS209     -0.1241
     86  CA         2.9180  -16.6020    5.2650 C.3   209  HIS209      0.1621
     87  C          3.3350  -15.2760    5.8850 C.2   209  HIS209      0.2264
     88  O          3.0480  -14.2040    5.3440 O.2   209  HIS209     -0.2867
     89  CB         4.1530  -17.3400    4.7300 C.3   209  HIS209      0.0745
     90  CG         4.7210  -16.7380    3.4820 C.ar  209  HIS209      0.0817
     91  ND1        4.1910  -16.9250    2.2240 N.ar  209  HIS209     -0.2268
     92  CD2        5.7840  -15.9120    3.3140 C.ar  209  HIS209      0.1154
     93  CE1        4.9340  -16.2240    1.3530 C.ar  209  HIS209      0.1986
     94  NE2        5.9120  -15.5910    1.9660 N.ar  209  HIS209     -0.2212
     95  N          6.1690  -13.4370    9.2760 N.3   211  VAL211     -0.1245
     96  CA         7.2680  -13.6080   10.2130 C.3   211  VAL211      0.1561
     97  C          6.8950  -13.0320   11.5730 C.2   211  VAL211      0.2260
     98  O          6.6330  -11.8370   11.6970 O.2   211  VAL211     -0.2867
     99  CB         8.5430  -12.9050    9.7100 C.3   211  VAL211      0.0252
    100  CG1        9.6760  -13.1040   10.7080 C.3   211  VAL211      0.0019
    101  CG2        8.9330  -13.4560    8.3450 C.3   211  VAL211      0.0019
    102  N         18.2850  -14.2640    7.0850 N.3   217  SER217     -0.1217
    103  CA        17.5050  -15.0190    6.1180 C.3   217  SER217      0.1889
    104  C         17.9280  -14.6770    4.6970 C.2   217  SER217      0.2288
    105  O         18.2180  -13.5230    4.3800 O.2   217  SER217     -0.2866
    106  CB        16.0090  -14.7360    6.2910 C.3   217  SER217      0.2089
    107  OG        15.7010  -13.3870    5.9930 O.3   217  SER217     -0.2183
    108  N         16.5870  -14.8560    0.9250 N.3   219  VAL219     -0.1245
    109  CA        15.3830  -15.0340    0.1160 C.3   219  VAL219      0.1561
    110  C         15.6610  -14.8310   -1.3670 C.2   219  VAL219      0.2260
    111  O         16.0900  -13.7560   -1.7810 O.2   219  VAL219     -0.2867
    112  CB        14.2870  -14.0440    0.5470 C.3   219  VAL219      0.0252
    113  CG1       13.0000  -14.3260   -0.2170 C.3   219  VAL219      0.0019
    114  CG2       14.0670  -14.1400    2.0460 C.3   219  VAL219      0.0019
    115  N         13.9770  -14.7990   -5.0670 N.3   221  PHE221     -0.1241
    116  CA        12.7580  -14.7380   -5.8680 C.3   221  PHE221      0.1605
    117  C         13.0380  -15.0710   -7.3350 C.2   221  PHE221      0.2264
    118  O         13.8270  -14.3720   -7.9810 O.2   221  PHE221     -0.2867
    119  CB        12.1560  -13.3230   -5.8550 C.3   221  PHE221      0.0534
    120  CG        11.7090  -12.8340   -4.5050 C.ar  221  PHE221     -0.0203
    121  CD1       10.6840  -13.4700   -3.8160 C.ar  221  PHE221     -0.0042
    122  CD2       12.2660  -11.6830   -3.9580 C.ar  221  PHE221     -0.0042
    123  CE1       10.2150  -12.9590   -2.6000 C.ar  221  PHE221     -0.0003
    124  CE2       11.8040  -11.1670   -2.7450 C.ar  221  PHE221     -0.0003
    125  CZ        10.7790  -11.8030   -2.0680 C.ar  221  PHE221     -0.0000
    126  N          5.5860   -9.0910   -3.3460 N.3   262  ILE262     -0.1245
    127  CA         4.6070   -9.6900   -2.4520 C.3   262  ILE262      0.1561
    128  C          3.2750   -8.9670   -2.5270 C.2   262  ILE262      0.2260
    129  O          3.1840   -7.8560   -3.0520 O.2   262  ILE262     -0.2867
    130  CB         5.1190   -9.6800   -0.9910 C.3   262  ILE262      0.0252
    131  CG1        5.2670   -8.2420   -0.4880 C.3   262  ILE262      0.0019
    132  CG2        6.4680  -10.3960   -0.9140 C.3   262  ILE262      0.0019
    133  CD1        5.6800   -8.1380    0.9700 C.3   262  ILE262      0.0001
@<TRIPOS>BOND
     1   118   117    2
     2   117   116    1
     3   116   119    1
     4   116   115    1
     5   119   120    1
     6    44    43    2
     7    43    42    1
     8   120   122   ar
     9   120   121   ar
    10   122   124   ar
    11   121   123   ar
    12    77    76    2
    13   126   127    1
    14    42    45    1
    15    42    41    1
    16   129   128    2
    17    45    46    1
    18    76    75    1
    19   124   125   ar
    20   123   125   ar
    21   128   127    1
    22   127   130    1
    23   111   110    2
    24    46    48   ar
    25    46    47   ar
    26    74    75    1
    27    75    78    1
    28   110   109    1
    29   130   132    1
    30   130   131    1
    31    78    79    1
    32   131   133    1
    33   113   112    1
    34   109   112    1
    35   109   108    1
    36    49    50    1
    37   112   114    1
    38    79    81   ar
    39    79    80   ar
    40    11     9    1
    41    93    94   ar
    42    93    91   ar
    43    38    40   ar
    44    38    36   ar
    45    81    83   ar
    46    80    82   ar
    47    50    51    1
    48    50    53    1
    49    33    34    2
    50    33    32    1
    51    54    56    1
    52    54    53    1
    53    94    92   ar
    54    40    39   ar
    55    35    36    1
    56    35    32    1
    57    91    90   ar
    58    36    37   ar
    59     9     8    2
    60     9    10    1
    61    51    52    2
    62    32    31    1
    63    53    55    1
    64    83    84   ar
    65    82    84   ar
    66     8     7    1
    67    39    37   ar
    68    92    90   ar
    69    90    89    1
    70    85    86    1
    71     7     6    1
    72    30    29    1
    73   105   104    2
    74     6     5    1
    75     1     2    1
    76   104   103    1
    77    89    86    1
    78    29    28    1
    79    86    87    1
    80    88    87    2
    81     2     5    1
    82     2     3    1
    83    57    58    1
    84   107   106    1
    85   103   106    1
    86   103   102    1
    87    28    27    1
    88    73    71    1
    89     3     4    2
    90    72    71    1
    91    62    61    1
    92    62    63    1
    93    58    61    1
    94    58    59    1
    95    71    70    1
    96    60    59    2
    97    27    24    1
    98    63    64    2
    99    63    65   am
   100    22    20   ar
   101    22    21   ar
   102   101    99    1
   103    25    24    1
   104    25    26    2
   105    20    18   ar
   106    24    23    1
   107    70    67    1
   108    21    19   ar
   109    95    96    1
   110    99    96    1
   111    99   100    1
   112    18    17   ar
   113    67    68    1
   114    67    66    1
   115    68    69    2
   116    96    97    1
   117    19    17   ar
   118    17    16    1
   119    12    13    1
   120    97    98    2
   121    13    16    1
   122    13    14    1
   123    14    15    2
