@<TRIPOS>MOLECULE
tmp/1hjuA01.pdb
 124 122 0 0 0
SMALL
GASTEIGER

@<TRIPOS>ATOM
      1  N         31.9160   -6.2710   26.9810 N.3    45  ARG45      -0.1245
      2  CA        32.6620   -5.0910   27.3830 C.3    45  ARG45       0.1563
      3  C         33.7520   -5.5610   28.3420 C.2    45  ARG45       0.2260
      4  O         33.5160   -6.4460   29.1680 O.2    45  ARG45      -0.2867
      5  CB        31.7020   -4.1290   28.0870 C.3    45  ARG45       0.0307
      6  CG        32.2970   -2.8280   28.5970 C.3    45  ARG45       0.0489
      7  CD        31.1430   -1.9710   29.1070 C.3    45  ARG45       0.2205
      8  NE        31.5190   -0.6360   29.5540 N.pl3  45  ARG45      -0.0865
      9  CZ        31.7560   -0.3090   30.8200 C.cat  45  ARG45       0.5346
     10  NH1       31.6710   -1.2250   31.7770 N.pl3  45  ARG45       0.1354
     11  NH2       32.0320    0.9490   31.1300 N.pl3  45  ARG45       0.1354
     12  N         40.3280    2.6170   31.0250 N.3    81  HIS81      -0.1241
     13  CA        40.1400    3.4190   32.2340 C.3    81  HIS81       0.1621
     14  C         41.2440    4.4660   32.3570 C.2    81  HIS81       0.2264
     15  O         41.1130    5.4390   33.1020 O.2    81  HIS81      -0.2867
     16  CB        40.1300    2.5330   33.4850 C.3    81  HIS81       0.0745
     17  CG        38.8460    1.7900   33.6860 C.ar   81  HIS81       0.0817
     18  ND1       38.3120    1.5540   34.9330 N.ar   81  HIS81      -0.2268
     19  CD2       37.9710    1.2630   32.7950 C.ar   81  HIS81       0.1154
     20  CE1       37.1610    0.9180   34.8040 C.ar   81  HIS81       0.1986
     21  NE2       36.9310    0.7300   33.5160 N.ar   81  HIS81      -0.2212
     22  N         40.4770    1.1000   39.2640 N.3    86  TRP86      -0.1227
     23  CA        39.1300    1.5970   38.9820 C.3    86  TRP86       0.1737
     24  C         39.0440    3.0930   38.7030 C.2    86  TRP86       0.2595
     25  O         39.5000    3.9110   39.5000 O.2    86  TRP86      -0.2718
     26  CB        38.1660    1.2910   40.1430 C.3    86  TRP86       0.0564
     27  CG        38.0790   -0.1510   40.5250 C.ar   86  TRP86       0.0003
     28  CD1       38.7310   -0.7680   41.5550 C.ar   86  TRP86       0.0946
     29  CD2       37.3110   -1.1650   39.8710 C.ar   86  TRP86       0.0152
     30  NE1       38.4170   -2.1040   41.5830 N.ar   86  TRP86      -0.2442
     31  CE2       37.5480   -2.3780   40.5600 C.ar   86  TRP86       0.0810
     32  CE3       36.4480   -1.1700   38.7670 C.ar   86  TRP86       0.0012
     33  CZ2       36.9510   -3.5880   40.1800 C.ar   86  TRP86       0.0191
     34  CZ3       35.8530   -2.3730   38.3880 C.ar   86  TRP86       0.0001
     35  CH2       36.1100   -3.5660   39.0950 C.ar   86  TRP86       0.0015
     36  N         38.4400    3.4430   37.5740 N.am   87  ALA87      -0.1966
     37  CA        38.2490    4.8450   37.2230 C.3    87  ALA87       0.1728
     38  C         36.7530    5.1190   37.2970 C.2    87  ALA87       0.2616
     39  O         35.9650    4.4090   36.6770 O.2    87  ALA87      -0.2715
     40  CB        38.7600    5.1240   35.8090 C.3    87  ALA87       0.0334
     41  N         36.3680    6.1250   38.0770 N.am   88  ASP88      -0.1971
     42  CA        34.9650    6.5120   38.2130 C.3    88  ASP88       0.1709
     43  C         34.9320    8.0210   38.4600 C.2    88  ASP88       0.2293
     44  O         35.9800    8.6560   38.5050 O.2    88  ASP88      -0.2864
     45  CB        34.2870    5.7300   39.3540 C.3    88  ASP88       0.1436
     46  CG        35.0470    5.8160   40.6610 C.2    88  ASP88       0.3671
     47  OD1       35.3520    6.9400   41.1090 O.co2  88  ASP88      -0.2456
     48  OD2       35.3310    4.7490   41.2480 O.co2  88  ASP88      -0.2456
     49  N         36.5730    5.9150   31.3850 N.3   134  ASN134     -0.1225
     50  CA        35.3930    5.3110   31.9950 C.3   134  ASN134      0.1785
     51  C         34.7270    6.3280   32.9290 C.2   134  ASN134      0.2597
     52  O         35.3550    6.8230   33.8650 O.2   134  ASN134     -0.2718
     53  CB        35.7970    4.0630   32.7800 C.3   134  ASN134      0.1169
     54  CG        34.6020    3.3070   33.3210 C.2   134  ASN134      0.2627
     55  OD1       33.9320    2.5580   32.5960 O.2   134  ASN134     -0.2716
     56  ND2       34.3110    3.5150   34.5990 N.am  134  ASN134     -0.0877
     57  N         33.4580    6.6320   32.6720 N.am  135  GLU135     -0.1979
     58  CA        32.7080    7.6000   33.4800 C.3   135  GLU135      0.1602
     59  C         33.5530    8.8340   33.8060 C.2   135  GLU135      0.2287
     60  O         33.7770    9.1530   34.9740 O.2   135  GLU135     -0.2864
     61  CB        32.2250    6.9480   34.7800 C.3   135  GLU135      0.0415
     62  CG        31.3600    5.7100   34.5710 C.3   135  GLU135      0.1163
     63  CD        30.7580    5.1730   35.8620 C.2   135  GLU135      0.3649
     64  OE1       31.4490    5.2000   36.9050 O.co2 135  GLU135     -0.2457
     65  OE2       29.6020    4.7050   35.8290 O.co2 135  GLU135     -0.2457
     66  N         21.9540    3.2580   36.6440 N.3   214  TYR214     -0.1241
     67  CA        21.6910    2.3820   37.7820 C.3   214  TYR214      0.1605
     68  C         20.4790    2.9040   38.5540 C.2   214  TYR214      0.2264
     69  O         20.2460    4.1110   38.6320 O.2   214  TYR214     -0.2867
     70  CB        22.9170    2.3320   38.7000 C.3   214  TYR214      0.0534
     71  CG        24.0970    1.5620   38.1310 C.ar  214  TYR214     -0.0201
     72  CD1       24.1140    0.1680   38.1390 C.ar  214  TYR214     -0.0009
     73  CD2       25.1990    2.2280   37.5990 C.ar  214  TYR214     -0.0009
     74  CE1       25.2010   -0.5440   37.6370 C.ar  214  TYR214      0.0417
     75  CE2       26.2950    1.5240   37.0930 C.ar  214  TYR214      0.0417
     76  CZ        26.2880    0.1420   37.1180 C.ar  214  TYR214      0.1957
     77  OH        27.3750   -0.5560   36.6480 O.3   214  TYR214     -0.2866
     78  N         21.3460    4.3790   43.1610 N.3   217  TYR217     -0.1241
     79  CA        22.2510    5.4190   43.6470 C.3   217  TYR217      0.1605
     80  C         21.5200    6.7520   43.7270 C.2   217  TYR217      0.2264
     81  O         22.1270    7.7780   44.0260 O.2   217  TYR217     -0.2867
     82  CB        23.4680    5.5750   42.7320 C.3   217  TYR217      0.0534
     83  CG        24.3980    4.3820   42.7240 C.ar  217  TYR217     -0.0201
     84  CD1       24.9560    3.8950   43.9090 C.ar  217  TYR217     -0.0009
     85  CD2       24.7210    3.7390   41.5290 C.ar  217  TYR217     -0.0009
     86  CE1       25.8150    2.7970   43.9020 C.ar  217  TYR217      0.0417
     87  CE2       25.5770    2.6420   41.5110 C.ar  217  TYR217      0.0417
     88  CZ        26.1200    2.1740   42.6970 C.ar  217  TYR217      0.1957
     89  OH        26.9600    1.0870   42.6720 O.3   217  TYR217     -0.2866
     90  N         26.3260    0.4640   31.0680 N.3   245  GLU245     -0.1245
     91  CA        26.3870   -0.1450   32.3910 C.3   245  GLU245      0.1567
     92  C         25.0240   -0.0530   33.0430 C.2   245  GLU245      0.2260
     93  O         24.4210    1.0140   33.0600 O.2   245  GLU245     -0.2867
     94  CB        27.3900    0.5810   33.3010 C.3   245  GLU245      0.0388
     95  CG        28.8330    0.1930   33.1050 C.3   245  GLU245      0.1160
     96  CD        29.7380    0.7770   34.1770 C.2   245  GLU245      0.3649
     97  OE1       29.3220    0.8240   35.3590 O.co2 245  GLU245     -0.2457
     98  OE2       30.8670    1.1740   33.8270 O.co2 245  GLU245     -0.2457
     99  N         26.2280   -4.7780   33.5940 N.3   296  TRP296     -0.1241
    100  CA        27.5590   -4.8290   34.1950 C.3   296  TRP296      0.1605
    101  C         27.8420   -6.0290   35.0970 C.2   296  TRP296      0.2264
    102  O         27.1740   -6.2240   36.1140 O.2   296  TRP296     -0.2867
    103  CB        27.8470   -3.5410   34.9840 C.3   296  TRP296      0.0550
    104  CG        29.3060   -3.3700   35.3090 C.ar  296  TRP296      0.0003
    105  CD1       30.3210   -3.1680   34.4180 C.ar  296  TRP296      0.0946
    106  CD2       29.9180   -3.4080   36.6110 C.ar  296  TRP296      0.0152
    107  NE1       31.5260   -3.0770   35.0790 N.ar  296  TRP296     -0.2442
    108  CE2       31.3090   -3.2210   36.4240 C.ar  296  TRP296      0.0810
    109  CE3       29.4280   -3.5830   37.9160 C.ar  296  TRP296      0.0012
    110  CZ2       32.2190   -3.2010   37.4950 C.ar  296  TRP296      0.0191
    111  CZ3       30.3340   -3.5640   38.9850 C.ar  296  TRP296      0.0001
    112  CH2       31.7150   -3.3750   38.7630 C.ar  296  TRP296      0.0015
    113  N         28.0880   -6.1600   43.5870 N.3   306  LEU306     -0.1231
    114  CA        28.7470   -5.3590   42.5630 C.3   306  LEU306      0.1693
    115  C         28.9940   -3.9150   42.9900 C.2   306  LEU306      0.2592
    116  O         28.6980   -2.9810   42.2410 O.2   306  LEU306     -0.2718
    117  CB        27.9190   -5.3840   41.2700 C.3   306  LEU306      0.0284
    118  CG        27.7710   -6.7640   40.6120 C.3   306  LEU306      0.0019
    119  CD1       26.8880   -6.6700   39.3720 C.3   306  LEU306      0.0001
    120  CD2       29.1440   -7.3000   40.2380 C.3   306  LEU306      0.0001
    121  N         29.5290   -3.7400   44.1960 N.am  307  GLY307     -0.1957
    122  CA        29.8280   -2.4140   44.7000 C.3   307  GLY307      0.1869
    123  C         28.6570   -1.5300   45.0920 C.2   307  GLY307      0.2309
    124  O         28.8660   -0.3790   45.4660 O.2   307  GLY307     -0.2863
@<TRIPOS>BOND
     1     1     2    1
     2     2     5    1
     3     2     3    1
     4     5     6    1
     5     3     4    2
     6     6     7    1
     7     7     8    1
     8     8     9    2
     9     9    11    1
    10     9    10    1
    11    12    13    1
    12    90    91    1
    13    49    50    1
    14    50    53    1
    15    50    51    1
    16    13    14    1
    17    13    16    1
    18    14    15    2
    19    91    92    1
    20    91    94    1
    21    55    54    2
    22    57    51   am
    23    57    58    1
    24    53    54    1
    25    19    21   ar
    26    19    17   ar
    27    51    52    2
    28    92    93    2
    29    95    94    1
    30    95    96    1
    31    54    56   am
    32    58    59    1
    33    58    61    1
    34    16    17    1
    35    21    20   ar
    36    99   100    1
    37    17    18   ar
    38    59    60    2
    39    98    96   ar
    40    96    97   ar
    41   100   103    1
    42   100   101    1
    43   105   107   ar
    44   105   104   ar
    45    62    61    1
    46    62    63    1
    47    20    18   ar
    48   103   104    1
    49   107   108   ar
    50   101   102    2
    51   104   106   ar
    52    40    37    1
    53    65    63   ar
    54    63    64   ar
    55   108   106   ar
    56   108   110   ar
    57   106   109   ar
    58    66    67    1
    59    77    76    1
    60    39    38    2
    61    75    76   ar
    62    75    73   ar
    63    76    74   ar
    64    37    38    1
    65    37    36    1
    66    38    41   am
    67   110   112   ar
    68    36    24   am
    69    73    71   ar
    70    74    72   ar
    71    67    68    1
    72    67    70    1
    73   109   111   ar
    74    41    42    1
    75    71    72   ar
    76    71    70    1
    77    42    43    1
    78    42    45    1
    79    34    32   ar
    80    34    35   ar
    81    43    44    2
    82    68    69    2
    83    24    23    1
    84    24    25    2
    85   112   111   ar
    86    32    29   ar
    87    23    22    1
    88    23    26    1
    89    35    33   ar
    90    45    46    1
    91   119   118    1
    92    29    27   ar
    93    29    31   ar
    94    26    27    1
    95    33    31   ar
    96   120   118    1
    97    27    28   ar
    98    31    30   ar
    99   118   117    1
   100    46    47   ar
   101    46    48   ar
   102   117   114    1
   103    87    85   ar
   104    87    88   ar
   105    85    83   ar
   106    28    30   ar
   107   116   115    2
   108   114   115    1
   109   114   113    1
   110    89    88    1
   111    88    86   ar
   112    83    82    1
   113    83    84   ar
   114    82    79    1
   115   115   121   am
   116    78    79    1
   117    79    80    1
   118    80    81    2
   119    86    84   ar
   120   121   122    1
   121   122   123    1
   122   123   124    2
