@<TRIPOS>MOLECULE
tmp/1hjzA00.pdb
 97 92 0 0 0
SMALL
GASTEIGER

@<TRIPOS>ATOM
      1  N         22.6680  -15.2030   30.4320 N.3    32  ALA32      -0.1231
      2  CA        23.3110  -15.0800   29.1280 C.3    32  ALA32       0.1694
      3  C         22.1290  -15.1440   28.1660 C.2    32  ALA32       0.2592
      4  O         21.6780  -16.2220   27.7920 O.2    32  ALA32      -0.2718
      5  CB        24.2570  -16.2590   28.8930 C.3    32  ALA32       0.0304
      6  N         21.6220  -13.9850   27.7710 N.am   33  ALA33      -0.1966
      7  CA        20.4470  -13.9490   26.9080 C.3    33  ALA33       0.1728
      8  C         20.7370  -13.5450   25.4740 C.2    33  ALA33       0.2616
      9  O         21.8860  -13.3190   25.0990 O.2    33  ALA33      -0.2715
     10  CB        19.4300  -12.9780   27.5080 C.3    33  ALA33       0.0334
     11  N         19.6820  -13.5060   24.6620 N.am   34  ASN34      -0.1972
     12  CA        19.8140  -13.0230   23.2940 C.3    34  ASN34       0.1688
     13  C         19.3260  -11.5770   23.3690 C.2    34  ASN34       0.2292
     14  O         18.7650  -11.1610   24.3900 O.2    34  ASN34      -0.2864
     15  CB        19.0030  -13.8600   22.2780 C.3    34  ASN34       0.1181
     16  CG        17.5410  -14.0480   22.6620 C.2    34  ASN34       0.2629
     17  OD1       16.8070  -13.0870   22.8920 O.2    34  ASN34      -0.2716
     18  ND2       17.1090  -15.3030   22.7020 N.am   34  ASN34      -0.0877
     19  N         14.4400  -13.4950   24.7460 N.3    38  GLU38      -0.1245
     20  CA        13.5380  -14.6200   24.5490 C.3    38  GLU38       0.1567
     21  C         14.3320  -15.8020   25.1090 C.2    38  GLU38       0.2260
     22  O         15.2800  -16.2820   24.4960 O.2    38  GLU38      -0.2867
     23  CB        13.2220  -14.7680   23.0610 C.3    38  GLU38       0.0388
     24  CG        12.5510  -13.5040   22.5320 C.3    38  GLU38       0.1160
     25  CD        12.1030  -13.5960   21.0940 C.2    38  GLU38       0.3649
     26  OE1       12.9050  -14.0190   20.2380 O.co2  38  GLU38      -0.2457
     27  OE2       10.9420  -13.2240   20.8240 O.co2  38  GLU38      -0.2457
     28  N         14.5420  -19.0550   25.3300 N.3    40  GLY40      -0.1210
     29  CA        14.1100  -20.3280   24.7790 C.3    40  GLY40       0.1956
     30  C         14.9780  -21.5560   24.9630 C.2    40  GLY40       0.2612
     31  O         14.5560  -22.6560   24.6150 O.2    40  GLY40      -0.2717
     32  N         16.1820  -21.3920   25.4970 N.am   41  GLY41      -0.1942
     33  CA        17.0370  -22.5500   25.6870 C.3    41  GLY41       0.2014
     34  C         18.2830  -22.2350   26.4820 C.2    41  GLY41       0.2639
     35  O         18.5750  -21.0720   26.7440 O.2    41  GLY41      -0.2714
     36  N         19.0180  -23.2750   26.8660 N.am   42  GLY42      -0.1939
     37  CA        20.2460  -23.0790   27.6170 C.3    42  GLY42       0.2014
     38  C         20.0430  -22.5230   29.0110 C.2    42  GLY42       0.2639
     39  O         18.9820  -22.6950   29.6070 O.2    42  GLY42      -0.2714
     40  N         21.0590  -21.8520   29.5410 N.am   43  VAL43      -0.1963
     41  CA        20.9520  -21.2950   30.8830 C.3    43  VAL43       0.1727
     42  C         19.8590  -20.2280   30.9560 C.2    43  VAL43       0.2616
     43  O         19.2800  -20.0080   32.0150 O.2    43  VAL43      -0.2715
     44  CB        22.3050  -20.7060   31.3660 C.3    43  VAL43       0.0290
     45  CG1       22.6280  -19.4280   30.6170 C.3    43  VAL43       0.0023
     46  CG2       22.2580  -20.4640   32.8780 C.3    43  VAL43       0.0023
     47  N         19.5720  -19.5660   29.8370 N.am   44  ALA44      -0.1977
     48  CA        18.5130  -18.5560   29.8340 C.3    44  ALA44       0.1597
     49  C         17.1750  -19.2240   30.1520 C.2    44  ALA44       0.2287
     50  O         16.3610  -18.6790   30.8930 O.2    44  ALA44      -0.2864
     51  CB        18.4420  -17.8560   28.4850 C.3    44  ALA44       0.0319
     52  N         25.7790  -11.5180   24.9090 N.3   101  GLY101     -0.1225
     53  CA        27.1060  -11.6880   24.3480 C.3   101  GLY101      0.1811
     54  C         27.0380  -11.8600   22.8430 C.2   101  GLY101      0.2280
     55  O         25.9600  -12.0960   22.2900 O.2   101  GLY101     -0.2866
     56  N         28.9930  -18.6210   31.8080 N.3   139  ALA139     -0.1231
     57  CA        30.0090  -18.3760   30.7850 C.3   139  ALA139      0.1694
     58  C         29.3210  -17.8240   29.5380 C.2   139  ALA139      0.2592
     59  O         29.0590  -18.5620   28.5820 O.2   139  ALA139     -0.2718
     60  CB        30.7470  -19.6690   30.4530 C.3   139  ALA139      0.0304
     61  N         29.0240  -16.5260   29.5640 N.am  140  VAL140     -0.1966
     62  CA        28.3430  -15.8490   28.4560 C.3   140  VAL140      0.1727
     63  C         28.9780  -16.1430   27.0990 C.2   140  VAL140      0.2616
     64  O         30.2010  -16.0980   26.9500 O.2   140  VAL140     -0.2715
     65  CB        28.3210  -14.3200   28.6800 C.3   140  VAL140      0.0290
     66  CG1       27.6180  -13.6260   27.5160 C.3   140  VAL140      0.0023
     67  CG2       27.6140  -14.0000   29.9930 C.3   140  VAL140      0.0023
     68  N         28.1240  -16.4510   26.1210 N.am  141  SER141     -0.1950
     69  CA        28.5220  -16.7690   24.7470 C.3   141  SER141      0.1924
     70  C         29.2070  -18.1230   24.5430 C.2   141  SER141      0.2314
     71  O         29.4780  -18.5050   23.4070 O.2   141  SER141     -0.2863
     72  CB        29.4090  -15.6540   24.1690 C.3   141  SER141      0.2116
     73  OG        28.6450  -14.4910   23.8840 O.3   141  SER141     -0.2180
     74  N         27.8290  -20.8740   25.2390 N.3   143  GLY143     -0.1210
     75  CA        26.7570  -21.8140   24.9770 C.3   143  GLY143      0.1956
     76  C         26.5820  -21.9770   23.4790 C.2   143  GLY143      0.2612
     77  O         27.5630  -22.1500   22.7520 O.2   143  GLY143     -0.2717
     78  N         25.3470  -21.9030   22.9940 N.am  144  ILE144     -0.1965
     79  CA        25.1340  -22.0780   21.5650 C.3   144  ILE144      0.1727
     80  C         25.7470  -20.9710   20.7050 C.2   144  ILE144      0.2616
     81  O         25.8790  -21.1350   19.4920 O.2   144  ILE144     -0.2715
     82  CB        23.6320  -22.2180   21.2140 C.3   144  ILE144      0.0290
     83  CG1       22.9000  -20.8990   21.4460 C.3   144  ILE144      0.0022
     84  CG2       23.0100  -23.3260   22.0430 C.3   144  ILE144      0.0023
     85  CD1       21.4820  -20.9160   20.9210 C.3   144  ILE144      0.0001
     86  N         26.1350  -19.8530   21.3160 N.am  145  TYR145     -0.1974
     87  CA        26.7400  -18.7790   20.5320 C.3   145  TYR145      0.1639
     88  C         28.1480  -19.1590   20.0720 C.2   145  TYR145      0.2290
     89  O         28.7920  -18.4400   19.3040 O.2   145  TYR145     -0.2864
     90  CB        26.7260  -17.4580   21.3120 C.3   145  TYR145      0.0560
     91  CG        25.3920  -16.7330   21.2300 C.ar  145  TYR145     -0.0198
     92  CD1       24.3440  -17.2350   20.4490 C.ar  145  TYR145     -0.0009
     93  CD2       25.1850  -15.5320   21.9100 C.ar  145  TYR145     -0.0009
     94  CE1       23.1300  -16.5580   20.3440 C.ar  145  TYR145      0.0417
     95  CE2       23.9740  -14.8490   21.8120 C.ar  145  TYR145      0.0417
     96  CZ        22.9520  -15.3680   21.0250 C.ar  145  TYR145      0.1957
     97  OH        21.7540  -14.6950   20.9150 O.3   145  TYR145     -0.2866
@<TRIPOS>BOND
     1    89    88    2
     2    81    80    2
     3    88    87    1
     4    26    25   ar
     5    94    92   ar
     6    94    96   ar
     7    92    91   ar
     8    87    90    1
     9    87    86    1
    10    80    86   am
    11    80    79    1
    12    27    25   ar
    13    97    96    1
    14    85    83    1
    15    96    95   ar
    16    25    24    1
    17    82    83    1
    18    82    79    1
    19    82    84    1
    20    91    90    1
    21    91    93   ar
    22    79    78    1
    23    95    93   ar
    24    15    16    1
    25    15    12    1
    26    55    54    2
    27    24    23    1
    28    16    18   am
    29    16    17    2
    30    77    76    2
    31    54    53    1
    32    78    76   am
    33    23    20    1
    34    12    13    1
    35    12    11    1
    36    13    14    2
    37    71    70    2
    38    76    75    1
    39    73    72    1
    40    72    69    1
    41    53    52    1
    42    22    21    2
    43    70    69    1
    44    20    19    1
    45    20    21    1
    46    31    30    2
    47    11     8   am
    48    69    68    1
    49    29    30    1
    50    29    28    1
    51    30    32   am
    52    75    74    1
    53     9     8    2
    54     8     7    1
    55    32    33    1
    56    33    34    1
    57    68    63   am
    58    34    35    2
    59    34    36   am
    60    36    37    1
    61     7    10    1
    62     7     6    1
    63    64    63    2
    64    63    62    1
    65    66    65    1
    66    37    38    1
    67     6     3   am
    68     4     3    2
    69     3     2    1
    70    62    65    1
    71    62    61    1
    72    51    48    1
    73    59    58    2
    74    65    67    1
    75     5     2    1
    76    38    40   am
    77    38    39    2
    78     2     1    1
    79    58    61   am
    80    58    57    1
    81    40    41    1
    82    48    47    1
    83    48    49    1
    84    47    42   am
    85    49    50    2
    86    60    57    1
    87    45    44    1
    88    57    56    1
    89    41    42    1
    90    41    44    1
    91    42    43    2
    92    44    46    1
