@<TRIPOS>MOLECULE
tmp/1hk1A03.pdb
 106 103 0 0 0
SMALL
GASTEIGER

@<TRIPOS>ATOM
      1  N         26.5120   -1.9750   42.5190 N.3   485  GLU485     -0.1231
      2  CA        27.6430   -1.1610   42.9550 C.3   485  GLU485      0.1699
      3  C         28.1000   -0.1950   41.8630 C.2   485  GLU485      0.2592
      4  O         27.7610   -0.3710   40.6910 O.2   485  GLU485     -0.2718
      5  CB        28.7970   -2.0610   43.3900 C.3   485  GLU485      0.0402
      6  CG        29.7440   -1.4020   44.3830 C.3   485  GLU485      0.1161
      7  CD        30.8100   -2.3600   44.8910 C.2   485  GLU485      0.3649
      8  OE1       30.4380   -3.4490   45.3830 O.co2 485  GLU485     -0.2457
      9  OE2       32.0140   -2.0210   44.8020 O.co2 485  GLU485     -0.2457
     10  N         28.8720    0.8200   42.2560 N.am  486  PHE486     -0.1962
     11  CA        29.3550    1.8550   41.3330 C.3   486  PHE486      0.1771
     12  C         30.3210    1.3650   40.2580 C.2   486  PHE486      0.2619
     13  O         31.2760    0.6530   40.5550 O.2   486  PHE486     -0.2715
     14  CB        30.0100    2.9940   42.1250 C.3   486  PHE486      0.0574
     15  CG        30.4830    4.1380   41.2700 C.ar  486  PHE486     -0.0200
     16  CD1       29.5770    4.8840   40.5170 C.ar  486  PHE486     -0.0042
     17  CD2       31.8370    4.4610   41.2050 C.ar  486  PHE486     -0.0042
     18  CE1       30.0110    5.9330   39.7090 C.ar  486  PHE486     -0.0003
     19  CE2       32.2830    5.5070   40.4030 C.ar  486  PHE486     -0.0003
     20  CZ        31.3660    6.2450   39.6510 C.ar  486  PHE486     -0.0000
     21  N         30.0700    1.7540   39.0080 N.am  487  ASN487     -0.1972
     22  CA        30.9360    1.3400   37.9070 C.3   487  ASN487      0.1688
     23  C         31.8550    2.4610   37.4240 C.2   487  ASN487      0.2292
     24  O         33.0770    2.2790   37.3660 O.2   487  ASN487     -0.2864
     25  CB        30.1180    0.8240   36.7220 C.3   487  ASN487      0.1181
     26  CG        30.9680    0.0510   35.7230 C.2   487  ASN487      0.2629
     27  OD1       30.5150   -0.2670   34.6210 O.2   487  ASN487     -0.2716
     28  ND2       32.2020   -0.2570   36.1060 N.am  487  ASN487     -0.0877
     29  N         29.9790    6.6820   33.1660 N.3   491  PHE491     -0.1241
     30  CA        30.1920    8.1120   33.0120 C.3   491  PHE491      0.1605
     31  C         31.4930    8.5080   32.3390 C.2   491  PHE491      0.2264
     32  O         31.9410    9.6430   32.4880 O.2   491  PHE491     -0.2867
     33  CB        30.0890    8.7970   34.3790 C.3   491  PHE491      0.0534
     34  CG        28.8700    8.3870   35.1630 C.ar  491  PHE491     -0.0203
     35  CD1       28.9040    7.2730   35.9910 C.ar  491  PHE491     -0.0042
     36  CD2       27.6730    9.0820   35.0270 C.ar  491  PHE491     -0.0042
     37  CE1       27.7630    6.8510   36.6730 C.ar  491  PHE491     -0.0003
     38  CE2       26.5330    8.6740   35.7010 C.ar  491  PHE491     -0.0003
     39  CZ        26.5770    7.5540   36.5280 C.ar  491  PHE491     -0.0000
     40  N         21.3690    8.6350   33.7750 N.3   512  ALA512     -0.1245
     41  CA        22.0880    8.8470   35.0230 C.3   512  ALA512      0.1562
     42  C         21.1690    8.5620   36.2060 C.2   512  ALA512      0.2260
     43  O         21.5780    7.9160   37.1670 O.2   512  ALA512     -0.2867
     44  CB        22.5970   10.2800   35.0900 C.3   512  ALA512      0.0290
     45  N         20.6600    4.7340   36.8450 N.3   515  GLU515     -0.1231
     46  CA        21.8550    4.1630   37.4500 C.3   515  GLU515      0.1699
     47  C         21.9020    4.5670   38.9160 C.2   515  GLU515      0.2592
     48  O         22.2370    3.7610   39.7850 O.2   515  GLU515     -0.2718
     49  CB        23.1060    4.6530   36.7280 C.3   515  GLU515      0.0402
     50  CG        23.2640    4.1010   35.3140 C.3   515  GLU515      0.1161
     51  CD        23.2130    2.5790   35.2870 C.2   515  GLU515      0.3649
     52  OE1       23.6620    1.9720   36.2890 O.co2 515  GLU515     -0.2457
     53  OE2       22.7540    1.9950   34.2790 O.co2 515  GLU515     -0.2457
     54  N         21.5450    5.8130   39.1940 N.am  516  LEU516     -0.1980
     55  CA        21.5330    6.3110   40.5660 C.3   516  LEU516      0.1596
     56  C         20.6050    5.4390   41.4150 C.2   516  LEU516      0.2287
     57  O         20.9920    4.9490   42.4780 O.2   516  LEU516     -0.2864
     58  CB        21.0240    7.7510   40.5980 C.3   516  LEU516      0.0297
     59  CG        21.6510    8.7480   41.5740 C.3   516  LEU516      0.0022
     60  CD1       20.7430    9.9760   41.6770 C.3   516  LEU516      0.0001
     61  CD2       21.8640    8.1010   42.9320 C.3   516  LEU516      0.0001
     62  N         21.5940    1.9620   42.0790 N.3   519  HIS519     -0.1226
     63  CA        22.7120    1.9620   43.0090 C.3   519  HIS519      0.1752
     64  C         22.2740    2.1210   44.4680 C.2   519  HIS519      0.2595
     65  O         22.7640    1.4200   45.3480 O.2   519  HIS519     -0.2718
     66  CB        23.6830    3.0740   42.6160 C.3   519  HIS519      0.0759
     67  CG        24.9180    3.1250   43.4590 C.ar  519  HIS519      0.0818
     68  ND1       25.7290    2.0280   43.6590 N.ar  519  HIS519     -0.2268
     69  CD2       25.5020    4.1520   44.1250 C.ar  519  HIS519      0.1154
     70  CE1       26.7590    2.3770   44.4090 C.ar  519  HIS519      0.1986
     71  NE2       26.6450    3.6600   44.7050 N.ar  519  HIS519     -0.2212
     72  N         21.3420    3.0270   44.7230 N.am  520  LYS520     -0.1980
     73  CA        20.8660    3.2470   46.0810 C.3   520  LYS520      0.1596
     74  C         19.3340    3.2210   46.1340 C.2   520  LYS520      0.2287
     75  O         18.6940    4.2500   46.3670 O.2   520  LYS520     -0.2864
     76  CB        21.3960    4.5930   46.5960 C.3   520  LYS520      0.0298
     77  CG        20.8690    5.0200   47.9550 C.3   520  LYS520      0.0038
     78  CD        21.5130    4.1880   49.0700 C.3   520  LYS520      0.0206
     79  CE        21.0580    4.6240   50.4480 C.3   520  LYS520      0.1093
     80  NZ        21.7440    3.8260   51.5010 N.3   520  LYS520     -0.1314
     81  N         22.0630   14.3740   44.7870 N.3   531  VAL531     -0.1231
     82  CA        23.1220   13.7170   44.0350 C.3   531  VAL531      0.1692
     83  C         23.0660   14.0780   42.5500 C.2   531  VAL531      0.2591
     84  O         24.0930   14.2100   41.8910 O.2   531  VAL531     -0.2718
     85  CB        23.0350   12.1860   44.1930 C.3   531  VAL531      0.0266
     86  CG1       24.2140   11.5240   43.4980 C.3   531  VAL531      0.0020
     87  CG2       22.9930   11.8260   45.6700 C.3   531  VAL531      0.0020
     88  N         21.8600   14.2330   42.0260 N.am  532  MET532     -0.1979
     89  CA        21.6980   14.5910   40.6310 C.3   532  MET532      0.1605
     90  C         22.2090   16.0100   40.3820 C.2   532  MET532      0.2287
     91  O         23.0870   16.2270   39.5360 O.2   532  MET532     -0.2864
     92  CB        20.2270   14.4860   40.2390 C.3   532  MET532      0.0413
     93  CG        19.7670   13.0690   39.9120 C.3   532  MET532      0.0598
     94  SD        20.4570   12.4580   38.3430 S.3   532  MET532     -0.1393
     95  CE        19.4180   13.3500   37.1800 C.3   532  MET532      0.0692
     96  N         25.9480   16.3050   40.5290 N.3   535  PHE535     -0.1241
     97  CA        26.5310   15.6790   39.3480 C.3   535  PHE535      0.1605
     98  C         26.2250   16.4980   38.0880 C.2   535  PHE535      0.2264
     99  O         27.0390   16.5510   37.1590 O.2   535  PHE535     -0.2867
    100  CB        26.0350   14.2400   39.1850 C.3   535  PHE535      0.0534
    101  CG        26.9680   13.3820   38.3760 C.ar  535  PHE535     -0.0203
    102  CD1       27.1620   13.6280   37.0170 C.ar  535  PHE535     -0.0042
    103  CD2       27.7090   12.3670   38.9850 C.ar  535  PHE535     -0.0042
    104  CE1       28.0780   12.8870   36.2800 C.ar  535  PHE535     -0.0003
    105  CE2       28.6330   11.6190   38.2420 C.ar  535  PHE535     -0.0003
    106  CZ        28.8170   11.8810   36.8910 C.ar  535  PHE535     -0.0000
@<TRIPOS>BOND
     1    31    32    2
     2    31    30    1
     3    30    29    1
     4    30    33    1
     5    40    41    1
     6    53    51   ar
     7    33    34    1
     8    27    26    2
     9    41    44    1
    10    41    42    1
    11    36    34   ar
    12    36    38   ar
    13    34    35   ar
    14    51    50    1
    15    51    52   ar
    16    50    49    1
    17    38    39   ar
    18    26    28   am
    19    26    25    1
    20    35    37   ar
    21    42    43    2
    22   104   106   ar
    23   104   102   ar
    24    39    37   ar
    25    25    22    1
    26    49    46    1
    27    45    46    1
    28   106   105   ar
    29   102   101   ar
    30    99    98    2
    31    95    94    1
    32    24    23    2
    33    23    22    1
    34    46    47    1
    35    22    21    1
    36    98    97    1
    37   105   103   ar
    38    94    93    1
    39   101   103   ar
    40   101   100    1
    41    47    54   am
    42    47    48    2
    43    21    12   am
    44   100    97    1
    45    54    55    1
    46    97    96    1
    47    91    90    2
    48    20    18   ar
    49    20    19   ar
    50    18    16   ar
    51    93    92    1
    52    92    89    1
    53    12    13    2
    54    12    11    1
    55    90    89    1
    56    19    17   ar
    57    16    15   ar
    58    55    58    1
    59    55    56    1
    60    58    59    1
    61    89    88    1
    62     4     3    2
    63    17    15   ar
    64    15    14    1
    65    11    14    1
    66    11    10    1
    67    56    57    2
    68    59    60    1
    69    59    61    1
    70     3    10   am
    71     3     2    1
    72    84    83    2
    73    88    83   am
    74    62    63    1
    75     1     2    1
    76    83    82    1
    77    66    63    1
    78    66    67    1
    79     2     5    1
    80    63    64    1
    81     5     6    1
    82    67    68   ar
    83    67    69   ar
    84    86    85    1
    85    68    70   ar
    86    82    85    1
    87    82    81    1
    88    69    71   ar
    89    85    87    1
    90     6     7    1
    91    70    71   ar
    92    64    72   am
    93    64    65    2
    94    72    73    1
    95     9     7   ar
    96     7     8   ar
    97    73    74    1
    98    73    76    1
    99    74    75    2
   100    76    77    1
   101    77    78    1
   102    78    79    1
   103    79    80    1
