@<TRIPOS>MOLECULE
tmp/1hk1A00.pdb
 204 195 0 0 0
SMALL
GASTEIGER

@<TRIPOS>ATOM
      1  N          3.5040   -2.8090   10.0980 N.3   134  TYR134     -0.1241
      2  CA         2.3370   -3.0410    9.2420 C.3   134  TYR134      0.1605
      3  C          2.6600   -2.6620    7.7930 C.2   134  TYR134      0.2264
      4  O          2.5700   -1.4830    7.4240 O.2   134  TYR134     -0.2867
      5  CB         1.1580   -2.2030    9.7260 C.3   134  TYR134      0.0534
      6  CG        -0.1890   -2.5760    9.1790 C.ar  134  TYR134     -0.0201
      7  CD1       -0.5260   -3.8750    8.7820 C.ar  134  TYR134     -0.0009
      8  CD2       -1.1650   -1.5930    9.0990 C.ar  134  TYR134     -0.0009
      9  CE1       -1.8010   -4.1660    8.3370 C.ar  134  TYR134      0.0417
     10  CE2       -2.4390   -1.8780    8.6580 C.ar  134  TYR134      0.0417
     11  CZ        -2.7560   -3.1580    8.2840 C.ar  134  TYR134      0.1957
     12  OH        -4.0450   -3.4490    7.8760 O.3   134  TYR134     -0.2866
     13  N          0.7150    0.0710    5.6700 N.3   137  GLU137     -0.1245
     14  CA         0.9540    1.4050    6.1930 C.3   137  GLU137      0.1567
     15  C          2.3390    1.9050    5.8400 C.2   137  GLU137      0.2260
     16  O          2.5380    3.0990    5.6560 O.2   137  GLU137     -0.2867
     17  CB         0.7680    1.4280    7.7100 C.3   137  GLU137      0.0388
     18  CG        -0.6790    1.6140    8.1400 C.3   137  GLU137      0.1160
     19  CD        -1.2430    2.9470    7.6830 C.2   137  GLU137      0.3649
     20  OE1       -0.7090    4.0020    8.1100 O.co2 137  GLU137     -0.2457
     21  OE2       -2.2140    2.9370    6.8940 O.co2 137  GLU137     -0.2457
     22  N          2.0850    0.1870   17.7990 N.3   179  LYS179     -0.1231
     23  CA         0.6750   -0.1530   17.7210 C.3   179  LYS179      0.1693
     24  C          0.4920   -1.5320   17.0530 C.2   179  LYS179      0.2591
     25  O         -0.2600   -2.3870   17.5370 O.2   179  LYS179     -0.2718
     26  CB        -0.0580    0.9490   16.9450 C.3   179  LYS179      0.0285
     27  CG        -1.5780    0.9170   17.0430 C.3   179  LYS179      0.0035
     28  CD        -2.0740    1.1740   18.4510 C.3   179  LYS179      0.0206
     29  CE        -3.5930    1.1590   18.4860 C.3   179  LYS179      0.1093
     30  NZ        -4.1270    1.4570   19.8410 N.3   179  LYS179     -0.1314
     31  N          1.2020   -1.7540   15.9540 N.am  180  GLN180     -0.1979
     32  CA         1.0920   -3.0180   15.2350 C.3   180  GLN180      0.1601
     33  C          1.7750   -4.1590   15.9840 C.2   180  GLN180      0.2287
     34  O          1.3490   -5.3030   15.8690 O.2   180  GLN180     -0.2864
     35  CB         1.6670   -2.8650   13.8150 C.3   180  GLN180      0.0394
     36  CG         1.6430   -4.1170   12.9720 C.3   180  GLN180      0.0908
     37  CD         0.2410   -4.6010   12.5840 C.2   180  GLN180      0.2608
     38  OE1        0.0910   -5.7310   12.0910 O.2   180  GLN180     -0.2717
     39  NE2       -0.7810   -3.7650   12.7900 N.am  180  GLN180     -0.0878
     40  N         -0.7050   -5.8600   18.1730 N.3   183  LYS183     -0.1245
     41  CA        -1.6520   -6.7040   17.4360 C.3   183  LYS183      0.1561
     42  C         -0.9710   -8.0390   17.1510 C.2   183  LYS183      0.2260
     43  O         -1.5400   -9.1060   17.3720 O.2   183  LYS183     -0.2867
     44  CB        -2.0890   -6.0350   16.1180 C.3   183  LYS183      0.0271
     45  CG        -2.9340   -4.7690   16.3100 C.3   183  LYS183      0.0035
     46  CD        -3.5820   -4.3160   15.0070 C.3   183  LYS183      0.0206
     47  CE        -4.4840   -3.0930   15.2190 C.3   183  LYS183      0.1093
     48  NZ        -3.7200   -1.8510   15.5360 N.3   183  LYS183     -0.1314
     49  N         -7.6660  -11.6450   20.0880 N.3   195  PHE195     -0.1241
     50  CA        -7.6510  -10.4940   19.1920 C.3   195  PHE195      0.1605
     51  C         -9.0710  -10.1360   18.7210 C.2   195  PHE195      0.2264
     52  O         -9.3830   -8.9650   18.5020 O.2   195  PHE195     -0.2867
     53  CB        -6.7800  -10.7850   17.9760 C.3   195  PHE195      0.0534
     54  CG        -6.7620   -9.6760   16.9550 C.ar  195  PHE195     -0.0203
     55  CD1       -5.9810   -8.5420   17.1450 C.ar  195  PHE195     -0.0042
     56  CD2       -7.5070   -9.7830   15.7810 C.ar  195  PHE195     -0.0042
     57  CE1       -5.9340   -7.5250   16.1760 C.ar  195  PHE195     -0.0003
     58  CE2       -7.4670   -8.7760   14.8050 C.ar  195  PHE195     -0.0003
     59  CZ        -6.6770   -7.6460   15.0050 C.ar  195  PHE195     -0.0000
     60  N        -10.9500   -8.0900   21.2130 N.3   198  TRP198     -0.1227
     61  CA       -10.3540   -6.7790   21.1350 C.3   198  TRP198      0.1737
     62  C        -10.9160   -5.9390   19.9830 C.2   198  TRP198      0.2595
     63  O        -11.3560   -4.8100   20.1890 O.2   198  TRP198     -0.2718
     64  CB        -8.8470   -6.9160   20.9630 C.3   198  TRP198      0.0564
     65  CG        -8.1170   -5.6790   21.3450 C.ar  198  TRP198      0.0003
     66  CD1       -7.6250   -5.3720   22.5810 C.ar  198  TRP198      0.0946
     67  CD2       -7.8230   -4.5560   20.5040 C.ar  198  TRP198      0.0152
     68  NE1       -7.0380   -4.1310   22.5600 N.ar  198  TRP198     -0.2442
     69  CE2       -7.1410   -3.6100   21.2980 C.ar  198  TRP198      0.0810
     70  CE3       -8.0580   -4.2640   19.1530 C.ar  198  TRP198      0.0012
     71  CZ2       -6.7000   -2.3820   20.7910 C.ar  198  TRP198      0.0191
     72  CZ3       -7.6150   -3.0350   18.6430 C.ar  198  TRP198      0.0001
     73  CH2       -6.9400   -2.1140   19.4620 C.ar  198  TRP198      0.0015
     74  N        -10.8990   -6.4750   18.7670 N.am  199  ALA199     -0.1980
     75  CA       -11.4000   -5.7080   17.6320 C.3   199  ALA199      0.1597
     76  C        -12.9060   -5.5040   17.7390 C.2   199  ALA199      0.2287
     77  O        -13.4390   -4.4850   17.3030 O.2   199  ALA199     -0.2864
     78  CB       -11.0560   -6.4050   16.3280 C.3   199  ALA199      0.0319
     79  N        -13.4620   -2.6520   20.0340 N.3   202  ARG202     -0.1231
     80  CA       -13.0340   -1.3740   19.4840 C.3   202  ARG202      0.1694
     81  C        -13.8270   -0.8850   18.2940 C.2   202  ARG202      0.2591
     82  O        -14.0980    0.3000   18.1920 O.2   202  ARG202     -0.2718
     83  CB       -11.5570   -1.4060   19.0990 C.3   202  ARG202      0.0321
     84  CG       -10.9530   -0.0100   19.1170 C.3   202  ARG202      0.0489
     85  CD        -9.8820    0.1140   20.1930 C.3   202  ARG202      0.2205
     86  NE        -9.5000    1.5010   20.4480 N.pl3 202  ARG202     -0.0865
     87  CZ        -8.3350    1.8720   20.9720 C.cat 202  ARG202      0.5346
     88  NH1       -7.4270    0.9600   21.2970 N.pl3 202  ARG202      0.1354
     89  NH2       -8.0750    3.1570   21.1660 N.pl3 202  ARG202      0.1354
     90  N        -14.1910   -1.7760   17.3790 N.am  203  LEU203     -0.1980
     91  CA       -14.9480   -1.3350   16.2220 C.3   203  LEU203      0.1596
     92  C        -16.3440   -0.9440   16.6630 C.2   203  LEU203      0.2287
     93  O        -16.9450   -0.0350   16.0970 O.2   203  LEU203     -0.2864
     94  CB       -15.0160   -2.4290   15.1640 C.3   203  LEU203      0.0297
     95  CG       -13.6790   -2.9250   14.6060 C.3   203  LEU203      0.0022
     96  CD1      -13.9870   -3.8160   13.4250 C.3   203  LEU203      0.0001
     97  CD2      -12.7730   -1.7750   14.1650 C.3   203  LEU203      0.0001
     98  N        -16.0050    2.5830   17.6630 N.3   206  ARG206     -0.1231
     99  CA       -15.8600    3.4340   16.4860 C.3   206  ARG206      0.1694
    100  C        -17.1820    3.5550   15.7500 C.2   206  ARG206      0.2592
    101  O        -17.5510    4.6450   15.3380 O.2   206  ARG206     -0.2718
    102  CB       -14.8070    2.8510   15.5350 C.3   206  ARG206      0.0321
    103  CG       -13.4690    3.6080   15.4620 C.3   206  ARG206      0.0489
    104  CD       -12.9580    4.0090   16.8510 C.3   206  ARG206      0.2205
    105  NE       -11.5660    3.6320   17.1020 N.pl3 206  ARG206     -0.0865
    106  CZ       -10.9110    3.9220   18.2260 C.cat 206  ARG206      0.5346
    107  NH1      -11.5260    4.5940   19.1890 N.pl3 206  ARG206      0.1354
    108  NH2       -9.6510    3.5390   18.4000 N.pl3 206  ARG206      0.1354
    109  N        -17.8950    2.4320   15.6270 N.am  207  PHE207     -0.1976
    110  CA       -19.1580    2.3400   14.8860 C.3   207  PHE207      0.1639
    111  C        -20.3980    1.9180   15.6950 C.2   207  PHE207      0.2290
    112  O        -20.9850    0.8670   15.4340 O.2   207  PHE207     -0.2864
    113  CB       -18.9740    1.3400   13.7490 C.3   207  PHE207      0.0560
    114  CG       -17.6920    1.5210   12.9710 C.ar  207  PHE207     -0.0200
    115  CD1      -17.3790    2.7430   12.3870 C.ar  207  PHE207     -0.0042
    116  CD2      -16.8220    0.4530   12.7780 C.ar  207  PHE207     -0.0042
    117  CE1      -16.2230    2.9000   11.6170 C.ar  207  PHE207     -0.0003
    118  CE2      -15.6630    0.6050   12.0070 C.ar  207  PHE207     -0.0003
    119  CZ       -15.3660    1.8340   11.4270 C.ar  207  PHE207     -0.0000
    120  N        -10.7510   -8.3500    9.2940 N.3   222  LEU222     -0.1245
    121  CA        -9.6810   -7.6220    9.9520 C.3   222  LEU222      0.1561
    122  C         -8.6870   -8.5900   10.5940 C.2   222  LEU222      0.2260
    123  O         -7.4680   -8.3950   10.4990 O.2   222  LEU222     -0.2867
    124  CB       -10.2980   -6.7200   10.9980 C.3   222  LEU222      0.0270
    125  CG        -9.5150   -5.4960   11.4440 C.3   222  LEU222      0.0019
    126  CD1       -8.9030   -4.7830   10.2290 C.3   222  LEU222      0.0001
    127  CD2      -10.4710   -4.5880   12.1970 C.3   222  LEU222      0.0001
    128  N         -4.7200   -8.8410    9.6530 N.3   226  HIS226     -0.1241
    129  CA        -3.6210   -8.7890   10.5870 C.3   226  HIS226      0.1621
    130  C         -2.8780  -10.1080   10.8020 C.2   226  HIS226      0.2264
    131  O         -1.6650  -10.1000   11.0270 O.2   226  HIS226     -0.2867
    132  CB        -4.0990   -8.1630   11.9050 C.3   226  HIS226      0.0745
    133  CG        -4.2800   -6.6860   11.8210 C.ar  226  HIS226      0.0817
    134  ND1       -3.2160   -5.8240   11.6800 N.ar  226  HIS226     -0.2268
    135  CD2       -5.4020   -5.9300   11.7510 C.ar  226  HIS226      0.1154
    136  CE1       -3.6810   -4.5960   11.5140 C.ar  226  HIS226      0.1986
    137  NE2       -5.0000   -4.6350   11.5520 N.ar  226  HIS226     -0.2212
    138  N         -6.3160   -6.1100    2.6910 N.3   241  ARG241     -0.1245
    139  CA        -6.5660   -4.8270    3.3350 C.3   241  ARG241      0.1563
    140  C         -7.3120   -3.9090    2.3690 C.2   241  ARG241      0.2260
    141  O         -8.2390   -3.2070    2.7630 O.2   241  ARG241     -0.2867
    142  CB        -5.2680   -4.1440    3.7750 C.3   241  ARG241      0.0307
    143  CG        -5.5620   -2.9560    4.6580 C.3   241  ARG241      0.0489
    144  CD        -4.3970   -2.0060    4.8110 C.3   241  ARG241      0.2205
    145  NE        -4.7160   -0.9920    5.8160 N.pl3 241  ARG241     -0.0865
    146  CZ        -4.0000    0.1040    6.0500 C.cat 241  ARG241      0.5346
    147  NH1       -2.9030    0.3600    5.3460 N.pl3 241  ARG241      0.1354
    148  NH2       -4.3790    0.9410    7.0070 N.pl3 241  ARG241      0.1354
    149  N        -10.9820   -5.0210    1.9940 N.3   244  LEU244     -0.1231
    150  CA       -11.7040   -4.5810    3.1820 C.3   244  LEU244      0.1693
    151  C        -12.0050   -3.0880    3.0970 C.2   244  LEU244      0.2591
    152  O        -13.1220   -2.6530    3.3690 O.2   244  LEU244     -0.2718
    153  CB       -10.8860   -4.8630    4.4500 C.3   244  LEU244      0.0284
    154  CG       -11.5160   -4.3720    5.7680 C.3   244  LEU244      0.0019
    155  CD1      -12.8340   -5.0730    6.0290 C.3   244  LEU244      0.0001
    156  CD2      -10.5720   -4.6380    6.9070 C.3   244  LEU244      0.0001
    157  N        -10.9990   -2.3020    2.7290 N.am  245  ALA245     -0.1980
    158  CA       -11.1770   -0.8550    2.6030 C.3   245  ALA245      0.1597
    159  C        -12.3080   -0.5740    1.6130 C.2   245  ALA245      0.2287
    160  O        -13.1200    0.3350    1.8110 O.2   245  ALA245     -0.2864
    161  CB        -9.8840   -0.2020    2.1200 C.3   245  ALA245      0.0319
    162  N        -15.8310   -1.5220    3.1790 N.3   248  ILE248     -0.1245
    163  CA       -16.2360   -0.5150    4.1470 C.3   248  ILE248      0.1561
    164  C        -16.8470    0.6990    3.4890 C.2   248  ILE248      0.2260
    165  O        -17.9230    1.1510    3.8810 O.2   248  ILE248     -0.2867
    166  CB       -15.0400   -0.0750    5.0280 C.3   248  ILE248      0.0252
    167  CG1      -14.6580   -1.2240    5.9640 C.3   248  ILE248      0.0019
    168  CG2      -15.3950    1.1820    5.8280 C.3   248  ILE248      0.0019
    169  CD1      -13.6160   -0.8620    7.0020 C.3   248  ILE248      0.0001
    170  N         -7.2620    4.0080    3.3560 N.3   271  SER271     -0.1217
    171  CA        -7.0410    2.8780    4.2590 C.3   271  SER271      0.1889
    172  C         -6.4870    3.4280    5.5740 C.2   271  SER271      0.2288
    173  O         -6.9450    3.0520    6.6590 O.2   271  SER271     -0.2866
    174  CB        -6.0570    1.8780    3.6510 C.3   271  SER271      0.2089
    175  OG        -6.6390    1.2080    2.5420 O.3   271  SER271     -0.2183
    176  N         -9.3710    5.3340    7.2070 N.3   274  ILE274     -0.1231
    177  CA       -10.3550    4.4900    7.8730 C.3   274  ILE274      0.1692
    178  C         -9.8180    4.0210    9.2260 C.2   274  ILE274      0.2592
    179  O        -10.5500    3.9590   10.2120 O.2   274  ILE274     -0.2718
    180  CB       -10.7000    3.2420    7.0180 C.3   274  ILE274      0.0266
    181  CG1      -11.3310    3.6730    5.6880 C.3   274  ILE274      0.0019
    182  CG2      -11.6630    2.3320    7.7870 C.3   274  ILE274      0.0020
    183  CD1      -11.6900    2.5220    4.7720 C.3   274  ILE274      0.0001
    184  N         -8.5270    3.7090    9.2580 N.am  275  ALA275     -0.1966
    185  CA        -7.8790    3.2300   10.4670 C.3   275  ALA275      0.1728
    186  C         -7.8460    4.2400   11.6140 C.2   275  ALA275      0.2616
    187  O         -7.8680    3.8560   12.7880 O.2   275  ALA275     -0.2715
    188  CB        -6.4650    2.7760   10.1360 C.3   275  ALA275      0.0334
    189  N         -7.7990    5.5250   11.2800 N.am  276  GLU276     -0.1963
    190  CA        -7.7350    6.5700   12.2970 C.3   276  GLU276      0.1733
    191  C         -9.0610    7.2720   12.6080 C.2   276  GLU276      0.2616
    192  O         -9.1050    8.1220   13.4980 O.2   276  GLU276     -0.2715
    193  CB        -6.7000    7.6310   11.8900 C.3   276  GLU276      0.0429
    194  CG        -5.2810    7.1090   11.6500 C.3   276  GLU276      0.1163
    195  CD        -4.7320    6.2970   12.8190 C.2   276  GLU276      0.3649
    196  OE1       -4.8700    6.7530   13.9750 O.co2 276  GLU276     -0.2457
    197  OE2       -4.1530    5.2080   12.5790 O.co2 276  GLU276     -0.2457
    198  N        -10.1320    6.9150   11.9010 N.am  277  VAL277     -0.1977
    199  CA       -11.4350    7.5600   12.1000 C.3   277  VAL277      0.1596
    200  C        -11.9230    7.7580   13.5430 C.2   277  VAL277      0.2287
    201  O        -11.6730    6.9410   14.4290 O.2   277  VAL277     -0.2864
    202  CB       -12.5560    6.8330   11.3020 C.3   277  VAL277      0.0276
    203  CG1      -12.3020    6.9850    9.8260 C.3   277  VAL277      0.0022
    204  CG2      -12.6060    5.3540   11.6710 C.3   277  VAL277      0.0022
@<TRIPOS>BOND
     1   159   160    2
     2   159   158    1
     3   149   150    1
     4   161   158    1
     5   140   141    2
     6   140   139    1
     7   175   174    1
     8   158   157    1
     9   138   139    1
    10   157   151   am
    11   151   150    1
    12   151   152    2
    13   162   163    1
    14   150   153    1
    15   139   142    1
    16   170   171    1
    17   164   165    2
    18   164   163    1
    19   174   171    1
    20   142   143    1
    21   163   166    1
    22   171   172    1
    23   153   154    1
    24   143   144    1
    25   183   181    1
    26   144   145    1
    27   166   168    1
    28   166   167    1
    29   147   146    1
    30   172   173    2
    31    16    15    2
    32    13    14    1
    33   181   180    1
    34   154   155    1
    35   154   156    1
    36   145   146    2
    37    15    14    1
    38   167   169    1
    39   146   148    1
    40    14    17    1
    41    21    19   ar
    42   180   182    1
    43   180   177    1
    44   176   177    1
    45     4     3    2
    46    19    20   ar
    47    19    18    1
    48    17    18    1
    49     3     2    1
    50   177   178    1
    51    12    11    1
    52    11     9   ar
    53    11    10   ar
    54     9     7   ar
    55    10     8   ar
    56     7     6   ar
    57     8     6   ar
    58     6     5    1
    59   178   184   am
    60   178   179    2
    61     2     5    1
    62     2     1    1
    63   184   185    1
    64   120   121    1
    65   128   129    1
    66   203   202    1
    67   121   122    1
    68   121   124    1
    69   188   185    1
    70   126   125    1
    71   185   186    1
    72   123   122    2
    73   129   130    1
    74   129   132    1
    75   130   131    2
    76   124   125    1
    77   189   186   am
    78   189   190    1
    79   202   204    1
    80   202   199    1
    81   119   117   ar
    82   119   118   ar
    83   125   127    1
    84   136   137   ar
    85   136   134   ar
    86   137   135   ar
    87   186   187    2
    88   117   115   ar
    89   194   193    1
    90   194   195    1
    91   134   133   ar
    92   135   133   ar
    93   133   132    1
    94   193   190    1
    95   198   199    1
    96   198   191   am
    97   118   116   ar
    98    38    37    2
    99   199   200    1
   100   190   191    1
   101   115   114   ar
   102   197   195   ar
   103    37    39   am
   104    37    36    1
   105   191   192    2
   106   116   114   ar
   107   195   196   ar
   108   114   113    1
   109    36    35    1
   110    96    95    1
   111   200   201    2
   112   113   110    1
   113    35    32    1
   114    97    95    1
   115    95    94    1
   116    58    59   ar
   117    58    56   ar
   118   110   109    1
   119   110   111    1
   120    59    57   ar
   121    46    47    1
   122    46    45    1
   123    94    91    1
   124    47    48    1
   125    32    31    1
   126    32    33    1
   127   101   100    2
   128   112   111    2
   129   103   102    1
   130   103   104    1
   131   102    99    1
   132   109   100   am
   133   100    99    1
   134    56    54   ar
   135    34    33    2
   136    31    24   am
   137    93    92    2
   138    44    45    1
   139    44    41    1
   140    57    55   ar
   141    91    92    1
   142    91    90    1
   143    78    75    1
   144    99    98    1
   145   104   105    1
   146    26    27    1
   147    26    23    1
   148    54    55   ar
   149    54    53    1
   150    27    28    1
   151    24    25    2
   152    24    23    1
   153   105   106    2
   154    42    43    2
   155    42    41    1
   156    77    76    2
   157    90    81   am
   158    41    40    1
   159    75    76    1
   160    75    74    1
   161    23    22    1
   162    53    50    1
   163    82    81    2
   164   106   108    1
   165   106   107    1
   166    81    80    1
   167    28    29    1
   168    29    30    1
   169    52    51    2
   170    72    70   ar
   171    72    73   ar
   172    51    50    1
   173    74    62   am
   174    83    84    1
   175    83    80    1
   176    84    85    1
   177    70    67   ar
   178    50    49    1
   179    73    71   ar
   180    80    79    1
   181    62    63    2
   182    62    61    1
   183    85    86    1
   184    86    87    2
   185    67    69   ar
   186    67    65   ar
   187    71    69   ar
   188    64    61    1
   189    64    65    1
   190    87    89    1
   191    87    88    1
   192    61    60    1
   193    69    68   ar
   194    65    66   ar
   195    68    66   ar
