@<TRIPOS>MOLECULE
tmp/1hk1A02.pdb
 165 161 0 0 0
SMALL
GASTEIGER

@<TRIPOS>ATOM
      1  N         32.3560    3.4490   34.5780 N.3   489  GLU489     -0.1231
      2  CA        32.5660    3.2550   33.1400 C.3   489  GLU489      0.1699
      3  C         31.3570    3.8730   32.4310 C.2   489  GLU489      0.2593
      4  O         31.4330    4.2800   31.2700 O.2   489  GLU489     -0.2718
      5  CB        32.6850    1.7570   32.8220 C.3   489  GLU489      0.0402
      6  CG        34.0730    1.1540   33.0860 C.3   489  GLU489      0.1161
      7  CD        35.1060    1.5570   32.0350 C.2   489  GLU489      0.3649
      8  OE1       34.8200    1.4070   30.8270 O.co2 489  GLU489     -0.2457
      9  OE2       36.2080    2.0170   32.4120 O.co2 489  GLU489     -0.2457
     10  N         30.2560    3.9580   33.1720 N.am  490  THR490     -0.1939
     11  CA        29.0110    4.5330   32.6840 C.3   490  THR490      0.2028
     12  C         29.1740    6.0090   32.3560 C.2   490  THR490      0.2642
     13  O         28.5800    6.5290   31.4080 O.2   490  THR490     -0.2714
     14  CB        27.9200    4.4540   33.7560 C.3   490  THR490      0.1808
     15  OG1       27.9850    3.1850   34.4170 O.3   490  THR490     -0.2208
     16  CG2       26.5430    4.6520   33.1380 C.3   490  THR490      0.0379
     17  N         29.9790    6.6820   33.1660 N.am  491  PHE491     -0.1959
     18  CA        30.1920    8.1120   33.0120 C.3   491  PHE491      0.1771
     19  C         31.4930    8.5080   32.3390 C.2   491  PHE491      0.2620
     20  O         31.9410    9.6430   32.4880 O.2   491  PHE491     -0.2715
     21  CB        30.0890    8.7970   34.3790 C.3   491  PHE491      0.0574
     22  CG        28.8700    8.3870   35.1630 C.ar  491  PHE491     -0.0200
     23  CD1       28.9040    7.2730   35.9910 C.ar  491  PHE491     -0.0042
     24  CD2       27.6730    9.0820   35.0270 C.ar  491  PHE491     -0.0042
     25  CE1       27.7630    6.8510   36.6730 C.ar  491  PHE491     -0.0003
     26  CE2       26.5330    8.6740   35.7010 C.ar  491  PHE491     -0.0003
     27  CZ        26.5770    7.5540   36.5280 C.ar  491  PHE491     -0.0000
     28  N         32.1050    7.5840   31.6030 N.am  492  THR492     -0.1937
     29  CA        33.3440    7.9180   30.9150 C.3   492  THR492      0.2028
     30  C         33.0740    9.1320   30.0260 C.2   492  THR492      0.2642
     31  O         32.1790    9.1130   29.1810 O.2   492  THR492     -0.2714
     32  CB        33.8550    6.7520   30.0400 C.3   492  THR492      0.1808
     33  OG1       34.2530    5.6610   30.8750 O.3   492  THR492     -0.2208
     34  CG2       35.0500    7.1910   29.2160 C.3   492  THR492      0.0379
     35  N         33.8380   10.1970   30.2250 N.am  493  PHE493     -0.1959
     36  CA        33.6470   11.3920   29.4270 C.3   493  PHE493      0.1771
     37  C         33.6580   11.1240   27.9260 C.2   493  PHE493      0.2619
     38  O         34.3350   10.2200   27.4440 O.2   493  PHE493     -0.2715
     39  CB        34.7330   12.4240   29.7390 C.3   493  PHE493      0.0574
     40  CG        34.7220   13.6050   28.8100 C.ar  493  PHE493     -0.0200
     41  CD1       33.6580   14.5080   28.8190 C.ar  493  PHE493     -0.0042
     42  CD2       35.7560   13.7940   27.8920 C.ar  493  PHE493     -0.0042
     43  CE1       33.6170   15.5880   27.9220 C.ar  493  PHE493     -0.0003
     44  CE2       35.7300   14.8710   26.9850 C.ar  493  PHE493     -0.0003
     45  CZ        34.6540   15.7700   27.0040 C.ar  493  PHE493     -0.0000
     46  N         32.8830   11.9180   27.1990 N.am  494  HIS494     -0.1973
     47  CA        32.8450   11.8460   25.7490 C.3   494  HIS494      0.1656
     48  C         32.5320   13.2410   25.2230 C.2   494  HIS494      0.2291
     49  O         31.5130   13.8400   25.5760 O.2   494  HIS494     -0.2864
     50  CB        31.7840   10.8790   25.2300 C.3   494  HIS494      0.0771
     51  CG        31.7250   10.8340   23.7360 C.ar  494  HIS494      0.0820
     52  ND1       32.3560    9.8590   22.9920 N.ar  494  HIS494     -0.2267
     53  CD2       31.2090   11.7100   22.8420 C.ar  494  HIS494      0.1154
     54  CE1       32.2330   10.1400   21.7070 C.ar  494  HIS494      0.1986
     55  NE2       31.5430   11.2590   21.5890 N.ar  494  HIS494     -0.2212
     56  N         29.0110   14.8580   24.8070 N.3   497  ILE497     -0.1245
     57  CA        28.2900   15.2010   26.0240 C.3   497  ILE497      0.1561
     58  C         28.0600   16.7130   26.2400 C.2   497  ILE497      0.2260
     59  O         26.9900   17.1150   26.6980 O.2   497  ILE497     -0.2867
     60  CB        29.0350   14.6120   27.2480 C.3   497  ILE497      0.0252
     61  CG1       28.1250   14.5800   28.4690 C.3   497  ILE497      0.0019
     62  CG2       30.2670   15.4440   27.5450 C.3   497  ILE497      0.0019
     63  CD1       28.8870   14.4380   29.7770 C.3   497  ILE497      0.0001
     64  N         25.3360   18.6980   23.3700 N.3   500  LEU500     -0.1245
     65  CA        24.0870   17.9860   23.1310 C.3   500  LEU500      0.1561
     66  C         22.8920   18.9240   23.0930 C.2   500  LEU500      0.2260
     67  O         22.9500   20.0600   23.5700 O.2   500  LEU500     -0.2867
     68  CB        23.8540   16.9240   24.2190 C.3   500  LEU500      0.0270
     69  CG        24.8600   15.7700   24.3420 C.3   500  LEU500      0.0019
     70  CD1       24.5180   14.9200   25.5560 C.3   500  LEU500      0.0001
     71  CD2       24.8450   14.9280   23.0700 C.3   500  LEU500      0.0001
     72  N         20.3970   15.8060   26.1560 N.3   505  ARG505     -0.1245
     73  CA        20.7420   16.0590   27.5460 C.3   505  ARG505      0.1563
     74  C         19.7700   15.3670   28.5100 C.2   505  ARG505      0.2260
     75  O         20.1980   14.6360   29.4140 O.2   505  ARG505     -0.2867
     76  CB        20.7730   17.5630   27.7810 C.3   505  ARG505      0.0307
     77  CG        20.7220   17.9980   29.2310 C.3   505  ARG505      0.0489
     78  CD        20.2840   19.4600   29.3130 C.3   505  ARG505      0.2205
     79  NE        19.6630   19.7880   30.5880 N.pl3 505  ARG505     -0.0865
     80  CZ        18.4450   19.3960   30.9500 C.cat 505  ARG505      0.5346
     81  NH1       17.7180   18.6590   30.1250 N.pl3 505  ARG505      0.1354
     82  NH2       17.9470   19.7400   32.1320 N.pl3 505  ARG505      0.1354
     83  N         20.4150   11.5990   28.6920 N.3   508  LYS508     -0.1231
     84  CA        21.5980   11.2100   29.4640 C.3   508  LYS508      0.1693
     85  C         21.2210   11.3150   30.9310 C.2   508  LYS508      0.2591
     86  O         21.3540   10.3640   31.6990 O.2   508  LYS508     -0.2718
     87  CB        22.7870   12.1530   29.1810 C.3   508  LYS508      0.0285
     88  CG        23.3070   12.1320   27.7320 C.3   508  LYS508      0.0035
     89  CD        24.2720   10.9710   27.4710 C.3   508  LYS508      0.0206
     90  CE        24.4070   10.6820   25.9820 C.3   508  LYS508      0.1093
     91  NZ        23.0590   10.4000   25.3790 N.3   508  LYS508     -0.1314
     92  N         20.7210   12.4810   31.3090 N.am  509  LYS509     -0.1980
     93  CA        20.3420   12.7100   32.6870 C.3   509  LYS509      0.1596
     94  C         19.3470   11.6610   33.2110 C.2   509  LYS509      0.2287
     95  O         19.4010   11.3050   34.3790 O.2   509  LYS509     -0.2864
     96  CB        19.7910   14.1270   32.8300 C.3   509  LYS509      0.0298
     97  CG        19.6990   14.6180   34.2680 C.3   509  LYS509      0.0038
     98  CD        20.1030   16.0950   34.3770 C.3   509  LYS509      0.0206
     99  CE        19.3310   16.7960   35.4960 C.3   509  LYS509      0.1093
    100  NZ        19.7070   18.2430   35.5620 N.3   509  LYS509     -0.1314
    101  N         19.2200    8.5890   32.1040 N.3   511  THR511     -0.1203
    102  CA        20.0570    7.3960   32.1580 C.3   511  THR511      0.1994
    103  C         20.8110    7.4680   33.4950 C.2   511  THR511      0.2617
    104  O         20.8780    6.5020   34.2550 O.2   511  THR511     -0.2717
    105  CB        21.0740    7.4000   30.9990 C.3   511  THR511      0.1784
    106  OG1       20.3640    7.4140   29.7560 O.3   511  THR511     -0.2211
    107  CG2       21.9960    6.1830   31.0630 C.3   511  THR511      0.0376
    108  N         21.3690    8.6350   33.7750 N.am  512  ALA512     -0.1979
    109  CA        22.0880    8.8470   35.0230 C.3   512  ALA512      0.1597
    110  C         21.1690    8.5620   36.2060 C.2   512  ALA512      0.2287
    111  O         21.5780    7.9160   37.1670 O.2   512  ALA512     -0.2864
    112  CB        22.5970   10.2800   35.0900 C.3   512  ALA512      0.0319
    113  N         21.8600   14.2330   42.0260 N.3   532  MET532     -0.1245
    114  CA        21.6980   14.5910   40.6310 C.3   532  MET532      0.1570
    115  C         22.2090   16.0100   40.3820 C.2   532  MET532      0.2261
    116  O         23.0870   16.2270   39.5360 O.2   532  MET532     -0.2867
    117  CB        20.2270   14.4860   40.2390 C.3   532  MET532      0.0387
    118  CG        19.7670   13.0690   39.9120 C.3   532  MET532      0.0595
    119  SD        20.4570   12.4580   38.3430 S.3   532  MET532     -0.1393
    120  CE        19.4180   13.3500   37.1800 C.3   532  MET532      0.0692
    121  N         25.9480   16.3050   40.5290 N.3   535  PHE535     -0.1227
    122  CA        26.5310   15.6790   39.3480 C.3   535  PHE535      0.1736
    123  C         26.2250   16.4980   38.0880 C.2   535  PHE535      0.2595
    124  O         27.0390   16.5510   37.1590 O.2   535  PHE535     -0.2718
    125  CB        26.0350   14.2400   39.1850 C.3   535  PHE535      0.0547
    126  CG        26.9680   13.3820   38.3760 C.ar  535  PHE535     -0.0202
    127  CD1       27.1620   13.6280   37.0170 C.ar  535  PHE535     -0.0042
    128  CD2       27.7090   12.3670   38.9850 C.ar  535  PHE535     -0.0042
    129  CE1       28.0780   12.8870   36.2800 C.ar  535  PHE535     -0.0003
    130  CE2       28.6330   11.6190   38.2420 C.ar  535  PHE535     -0.0003
    131  CZ        28.8170   11.8810   36.8910 C.ar  535  PHE535     -0.0000
    132  N         25.0610   17.1420   38.0530 N.am  536  ALA536     -0.1980
    133  CA        24.7230   17.9900   36.9090 C.3   536  ALA536      0.1597
    134  C         25.6380   19.2350   36.9190 C.2   536  ALA536      0.2287
    135  O         26.1190   19.6870   35.8770 O.2   536  ALA536     -0.2864
    136  CB        23.2640   18.4060   36.9730 C.3   536  ALA536      0.0319
    137  N         28.5770   19.3470   38.2690 N.3   538  PHE538     -0.1227
    138  CA        29.9150   18.8510   37.9790 C.3   538  PHE538      0.1736
    139  C         30.1470   18.7350   36.4760 C.2   538  PHE538      0.2595
    140  O         31.1950   19.1300   35.9750 O.2   538  PHE538     -0.2718
    141  CB        30.1300   17.4800   38.6160 C.3   538  PHE538      0.0547
    142  CG        31.2470   16.6890   37.9860 C.ar  538  PHE538     -0.0202
    143  CD1       32.5790   17.0310   38.2140 C.ar  538  PHE538     -0.0042
    144  CD2       30.9640   15.6250   37.1300 C.ar  538  PHE538     -0.0042
    145  CE1       33.6230   16.3240   37.5940 C.ar  538  PHE538     -0.0003
    146  CE2       31.9930   14.9100   36.5020 C.ar  538  PHE538     -0.0003
    147  CZ        33.3300   15.2630   36.7370 C.ar  538  PHE538     -0.0000
    148  N         29.1770   18.1850   35.7540 N.am  539  VAL539     -0.1980
    149  CA        29.3330   18.0340   34.3130 C.3   539  VAL539      0.1595
    150  C         29.2920   19.4020   33.6300 C.2   539  VAL539      0.2287
    151  O         29.9630   19.6230   32.6170 O.2   539  VAL539     -0.2864
    152  CB        28.2370   17.0970   33.7070 C.3   539  VAL539      0.0276
    153  CG1       26.8640   17.7390   33.8100 C.3   539  VAL539      0.0022
    154  CG2       28.5500   16.8060   32.2600 C.3   539  VAL539      0.0022
    155  N         37.1280   15.8070   34.1400 N.3   552  PHE552     -0.1241
    156  CA        36.3210   14.6310   34.4560 C.3   552  PHE552      0.1605
    157  C         37.1490   13.5070   35.0600 C.2   552  PHE552      0.2264
    158  O         36.5960   12.5050   35.5150 O.2   552  PHE552     -0.2867
    159  CB        35.6160   14.0890   33.2070 C.3   552  PHE552      0.0534
    160  CG        34.4620   14.9350   32.7300 C.ar  552  PHE552     -0.0203
    161  CD1       34.6560   15.9450   31.7870 C.ar  552  PHE552     -0.0042
    162  CD2       33.1750   14.7070   33.2130 C.ar  552  PHE552     -0.0042
    163  CE1       33.5830   16.7110   31.3330 C.ar  552  PHE552     -0.0003
    164  CE2       32.1000   15.4670   32.7670 C.ar  552  PHE552     -0.0003
    165  CZ        32.3010   16.4710   31.8250 C.ar  552  PHE552     -0.0000
@<TRIPOS>BOND
     1    55    54   ar
     2    55    53   ar
     3    54    52   ar
     4    53    51   ar
     5    52    51   ar
     6    71    69    1
     7    66    65    1
     8    66    67    2
     9    65    64    1
    10    65    68    1
    11    51    50    1
    12    68    69    1
    13    69    70    1
    14    56    57    1
    15    48    49    2
    16    48    47    1
    17    50    47    1
    18    91    90    1
    19    47    46    1
    20    90    89    1
    21    57    58    1
    22    57    60    1
    23    72    73    1
    24    58    59    2
    25    44    45   ar
    26    44    42   ar
    27    45    43   ar
    28    46    37   am
    29    60    62    1
    30    60    61    1
    31    38    37    2
    32    89    88    1
    33    73    76    1
    34    73    74    1
    35    88    87    1
    36    76    77    1
    37    42    40   ar
    38    43    41   ar
    39    37    36    1
    40    61    63    1
    41    74    75    2
    42    83    84    1
    43    40    41   ar
    44    40    39    1
    45    87    84    1
    46    31    30    2
    47    34    32    1
    48    77    78    1
    49    78    79    1
    50    36    39    1
    51    36    35    1
    52    84    85    1
    53   106   105    1
    54    30    35   am
    55    30    29    1
    56    32    33    1
    57    32    29    1
    58    81    80    1
    59    79    80    2
    60     8     7   ar
    61    29    28    1
    62    85    92   am
    63    85    86    2
    64    80    82    1
    65   105   107    1
    66   105   102    1
    67     4     3    2
    68    92    93    1
    69   163   161   ar
    70   163   165   ar
    71    13    12    2
    72    28    19   am
    73   161   160   ar
    74   165   164   ar
    75     7     9   ar
    76     7     6    1
    77   101   102    1
    78   102   103    1
    79   154   152    1
    80    19    20    2
    81    19    18    1
    82    12    11    1
    83    12    17   am
    84     3     2    1
    85     3    10   am
    86   151   150    2
    87    11    10    1
    88    11    14    1
    89    93    96    1
    90    93    94    1
    91   160   159    1
    92   160   162   ar
    93   164   162   ar
    94     5     6    1
    95     5     2    1
    96    96    97    1
    97    18    17    1
    98    18    21    1
    99    16    14    1
   100     2     1    1
   101   159   156    1
   102    94    95    2
   103   103   108   am
   104   103   104    2
   105   150   149    1
   106   152   153    1
   107   152   149    1
   108    14    15    1
   109   108   109    1
   110   155   156    1
   111    97    98    1
   112   149   148    1
   113    98    99    1
   114    21    22    1
   115   156   157    1
   116   109   112    1
   117   109   110    1
   118    24    22   ar
   119    24    26   ar
   120   157   158    2
   121    22    23   ar
   122    99   100    1
   123    26    27   ar
   124   148   139   am
   125   135   134    2
   126   140   139    2
   127    23    25   ar
   128   110   111    2
   129   129   131   ar
   130   129   127   ar
   131   139   138    1
   132   146   147   ar
   133   146   144   ar
   134    27    25   ar
   135   147   145   ar
   136   131   130   ar
   137   133   134    1
   138   133   136    1
   139   133   132    1
   140   127   126   ar
   141   144   142   ar
   142   124   123    2
   143   120   119    1
   144   145   143   ar
   145   138   137    1
   146   138   141    1
   147   142   143   ar
   148   142   141    1
   149   132   123   am
   150   123   122    1
   151   130   128   ar
   152   119   118    1
   153   126   128   ar
   154   126   125    1
   155   125   122    1
   156   122   121    1
   157   116   115    2
   158   118   117    1
   159   117   114    1
   160   115   114    1
   161   114   113    1
