@<TRIPOS>MOLECULE
tmp/1hk1A01.pdb
 130 120 0 0 0
SMALL
GASTEIGER

@<TRIPOS>ATOM
      1  N         -6.3420    6.4100   38.7600 N.3   371  LEU371     -0.1245
      2  CA        -4.9680    6.4790   38.2910 C.3   371  LEU371      0.1561
      3  C         -4.8160    7.5350   37.1970 C.2   371  LEU371      0.2260
      4  O         -3.8770    8.3220   37.2070 O.2   371  LEU371     -0.2867
      5  CB        -4.5220    5.1090   37.7710 C.3   371  LEU371      0.0270
      6  CG        -3.0340    4.9560   37.4270 C.3   371  LEU371      0.0019
      7  CD1       -2.6030    3.5090   37.6000 C.3   371  LEU371      0.0001
      8  CD2       -2.7790    5.4300   36.0060 C.3   371  LEU371      0.0001
      9  N         -5.1080   11.0750   38.7540 N.3   374  GLN374     -0.1231
     10  CA        -3.9090   11.4360   39.5020 C.3   374  GLN374      0.1698
     11  C         -2.6890   11.8270   38.6740 C.2   374  GLN374      0.2592
     12  O         -2.0640   12.8590   38.9420 O.2   374  GLN374     -0.2718
     13  CB        -3.4980   10.3000   40.4280 C.3   374  GLN374      0.0381
     14  CG        -4.5870    9.8190   41.3440 C.3   374  GLN374      0.0905
     15  CD        -4.0580    8.9000   42.4200 C.2   374  GLN374      0.2608
     16  OE1       -3.3760    7.9100   42.1330 O.2   374  GLN374     -0.2717
     17  NE2       -4.3660    9.2200   43.6740 N.am  374  GLN374     -0.0878
     18  N         -2.3300   11.0130   37.6820 N.am  375  ASN375     -0.1974
     19  CA        -1.1470   11.3240   36.8930 C.3   375  ASN375      0.1688
     20  C         -1.3670   12.4550   35.8920 C.2   375  ASN375      0.2292
     21  O         -0.4190   12.9480   35.2780 O.2   375  ASN375     -0.2864
     22  CB        -0.5910   10.0530   36.2220 C.3   375  ASN375      0.1181
     23  CG        -1.3110    9.6860   34.9470 C.2   375  ASN375      0.2629
     24  OD1       -2.4310   10.1360   34.6970 O.2   375  ASN375     -0.2716
     25  ND2       -0.6730    8.8500   34.1300 N.am  375  ASN375     -0.0877
     26  N         -0.7620   15.2870   38.2490 N.3   378  LEU378     -0.1245
     27  CA         0.6810   15.2780   38.4450 C.3   378  LEU378      0.1561
     28  C          1.3450   15.8700   37.2120 C.2   378  LEU378      0.2260
     29  O          2.2190   16.7300   37.3200 O.2   378  LEU378     -0.2867
     30  CB         1.1930   13.8520   38.6720 C.3   378  LEU378      0.0270
     31  CG         2.5240   13.7730   39.4350 C.3   378  LEU378      0.0019
     32  CD1        2.2900   14.2320   40.8720 C.3   378  LEU378      0.0001
     33  CD2        3.0750   12.3530   39.4280 C.3   378  LEU378      0.0001
     34  N          7.8140   14.8830   34.7580 N.3   387  PHE387     -0.1241
     35  CA         6.8570   13.7730   34.8640 C.3   387  PHE387      0.1605
     36  C          7.5010   12.4040   34.5560 C.2   387  PHE387      0.2264
     37  O          7.3440   11.4350   35.3220 O.2   387  PHE387     -0.2867
     38  CB         5.6810   14.0470   33.9270 C.3   387  PHE387      0.0534
     39  CG         4.6090   13.0010   33.9640 C.ar  387  PHE387     -0.0203
     40  CD1        4.1240   12.5240   35.1750 C.ar  387  PHE387     -0.0042
     41  CD2        4.0560   12.5160   32.7740 C.ar  387  PHE387     -0.0042
     42  CE1        3.1020   11.5820   35.2120 C.ar  387  PHE387     -0.0003
     43  CE2        3.0350   11.5780   32.7960 C.ar  387  PHE387     -0.0003
     44  CZ         2.5540   11.1060   34.0260 C.ar  387  PHE387     -0.0000
     45  N          9.6390   11.0790   37.3700 N.3   390  ALA390     -0.1231
     46  CA         8.9130   10.4700   38.4790 C.3   390  ALA390      0.1694
     47  C          8.5230    9.0270   38.1200 C.2   390  ALA390      0.2591
     48  O          8.5520    8.1380   38.9750 O.2   390  ALA390     -0.2718
     49  CB         7.6760   11.2820   38.7970 C.3   390  ALA390      0.0304
     50  N          8.1440    8.8010   36.8600 N.am  391  LEU391     -0.1980
     51  CA         7.7840    7.4590   36.4160 C.3   391  LEU391      0.1596
     52  C          9.0470    6.6190   36.4320 C.2   391  LEU391      0.2287
     53  O          9.0440    5.4670   36.8710 O.2   391  LEU391     -0.2864
     54  CB         7.2190    7.4900   34.9930 C.3   391  LEU391      0.0297
     55  CG         5.8270    8.1040   34.8220 C.3   391  LEU391      0.0022
     56  CD1        5.4600    8.1920   33.3500 C.3   391  LEU391      0.0001
     57  CD2        4.8310    7.2510   35.5600 C.3   391  LEU391      0.0001
     58  N          9.7780    5.5050   39.8230 N.3   394  ARG394     -0.1231
     59  CA         8.7330    4.5760   40.2310 C.3   394  ARG394      0.1694
     60  C          8.9400    3.1820   39.6180 C.2   394  ARG394      0.2592
     61  O          8.9380    2.1670   40.3250 O.2   394  ARG394     -0.2718
     62  CB         7.3640    5.1150   39.8080 C.3   394  ARG394      0.0321
     63  CG         6.1830    4.4640   40.5110 C.3   394  ARG394      0.0489
     64  CD         5.8090    5.2310   41.7750 C.3   394  ARG394      0.2205
     65  NE         4.6320    4.6650   42.4360 N.pl3 394  ARG394     -0.0865
     66  CZ         3.8860    5.3160   43.3240 C.cat 394  ARG394      0.5346
     67  NH1        4.1870    6.5660   43.6670 N.pl3 394  ARG394      0.1354
     68  NH2        2.8320    4.7170   43.8680 N.pl3 394  ARG394      0.1354
     69  N          9.1350    3.1410   38.3030 N.am  395  TYR395     -0.1976
     70  CA         9.3050    1.8790   37.6110 C.3   395  TYR395      0.1639
     71  C         10.6400    1.1980   37.7870 C.2   395  TYR395      0.2290
     72  O         10.7320   -0.0280   37.6780 O.2   395  TYR395     -0.2864
     73  CB         8.9830    2.0530   36.1270 C.3   395  TYR395      0.0560
     74  CG         7.5040    1.8900   35.8630 C.ar  395  TYR395     -0.0198
     75  CD1        6.5940    2.8720   36.2540 C.ar  395  TYR395     -0.0009
     76  CD2        7.0050    0.7140   35.3050 C.ar  395  TYR395     -0.0009
     77  CE1        5.2260    2.6880   36.1020 C.ar  395  TYR395      0.0417
     78  CE2        5.6340    0.5160   35.1480 C.ar  395  TYR395      0.0417
     79  CZ         4.7500    1.5080   35.5490 C.ar  395  TYR395      0.1957
     80  OH         3.3870    1.3260   35.3950 O.3   395  TYR395     -0.2866
     81  N         10.2920   -0.8990   40.8570 N.3   398  LYS398     -0.1245
     82  CA         9.4260   -2.0520   40.6180 C.3   398  LYS398      0.1561
     83  C         10.2210   -3.1740   39.9190 C.2   398  LYS398      0.2260
     84  O         10.1300   -4.3390   40.3100 O.2   398  LYS398     -0.2867
     85  CB         8.2290   -1.6410   39.7500 C.3   398  LYS398      0.0271
     86  CG         7.2490   -0.6760   40.4300 C.3   398  LYS398      0.0035
     87  CD         6.5810    0.2960   39.4370 C.3   398  LYS398      0.0206
     88  CE         5.1050   -0.0040   39.2000 C.3   398  LYS398      0.1093
     89  NZ         4.2380    0.0510   40.4250 N.3   398  LYS398     -0.1314
     90  N          6.0110    6.0610   28.6230 N.3   414  LEU414     -0.1245
     91  CA         4.8950    6.0520   29.5710 C.3   414  LEU414      0.1561
     92  C          4.6320    7.5020   29.9530 C.2   414  LEU414      0.2260
     93  O          3.4880    7.9080   30.1400 O.2   414  LEU414     -0.2867
     94  CB         5.2230    5.2670   30.8490 C.3   414  LEU414      0.0270
     95  CG         5.3190    3.7430   30.7990 C.3   414  LEU414      0.0019
     96  CD1        5.6740    3.2100   32.1910 C.3   414  LEU414      0.0001
     97  CD2        3.9990    3.1620   30.3160 C.3   414  LEU414      0.0001
     98  N         -1.0990    3.1570   27.1970 N.3   437  LEU437     -0.1245
     99  CA        -0.2410    2.5240   28.1820 C.3   437  LEU437      0.1561
    100  C         -0.0460    1.0710   27.8480 C.2   437  LEU437      0.2260
    101  O          1.0280    0.5160   28.0700 O.2   437  LEU437     -0.2867
    102  CB        -0.8480    2.6300   29.5740 C.3   437  LEU437      0.0270
    103  CG        -0.6980    3.9980   30.2420 C.3   437  LEU437      0.0019
    104  CD1       -1.4010    4.0070   31.5950 C.3   437  LEU437      0.0001
    105  CD2        0.7890    4.3010   30.3990 C.3   437  LEU437      0.0001
    106  N          3.7100   -0.8510   27.3880 N.3   441  LEU441     -0.1245
    107  CA         4.0550   -2.0360   28.1750 C.3   441  LEU441      0.1561
    108  C          4.2650   -3.2760   27.2810 C.2   441  LEU441      0.2260
    109  O          4.9080   -4.2500   27.6870 O.2   441  LEU441     -0.2867
    110  CB         2.9680   -2.3140   29.2260 C.3   441  LEU441      0.0270
    111  CG         2.7560   -1.1650   30.2360 C.3   441  LEU441      0.0019
    112  CD1        1.5090   -1.3920   31.0740 C.3   441  LEU441      0.0001
    113  CD2        3.9790   -1.0420   31.1370 C.3   441  LEU441      0.0001
    114  N         -1.4260   -3.6000   32.4160 N.3   469  ARG469     -0.1245
    115  CA        -1.3260   -2.2980   33.0710 C.3   469  ARG469      0.1563
    116  C         -1.5920   -2.4120   34.5890 C.2   469  ARG469      0.2260
    117  O         -0.7480   -2.0230   35.4070 O.2   469  ARG469     -0.2867
    118  CB        -2.2930   -1.3080   32.4130 C.3   469  ARG469      0.0307
    119  CG        -1.9570    0.1510   32.6700 C.3   469  ARG469      0.0489
    120  CD        -2.3210    0.5140   34.0760 C.3   469  ARG469      0.2205
    121  NE        -3.7650    0.5410   34.2620 N.pl3 469  ARG469     -0.0865
    122  CZ        -4.3730    0.2010   35.3900 C.cat 469  ARG469      0.5346
    123  NH1       -3.6570   -0.1990   36.4320 N.pl3 469  ARG469      0.1354
    124  NH2       -5.6910    0.2700   35.4800 N.pl3 469  ARG469      0.1354
    125  N          1.0260   -1.6570   37.5470 N.3   473  SER473     -0.1217
    126  CA         0.6890   -0.6470   38.5440 C.3   473  SER473      0.1889
    127  C          0.7330   -1.2100   39.9670 C.2   473  SER473      0.2288
    128  O          1.2410   -0.5560   40.8800 O.2   473  SER473     -0.2866
    129  CB        -0.7050   -0.0780   38.2950 C.3   473  SER473      0.2089
    130  OG        -0.7360    0.7410   37.1440 O.3   473  SER473     -0.2183
@<TRIPOS>BOND
     1    98    99    1
     2   108   109    2
     3   108   107    1
     4   106   107    1
     5   100   101    2
     6   100    99    1
     7   107   110    1
     8    99   102    1
     9    90    91    1
    10   110   111    1
    11    91    92    1
    12    91    94    1
    13   102   103    1
    14    92    93    2
    15   111   112    1
    16   111   113    1
    17   103   105    1
    18   103   104    1
    19    97    95    1
    20    95    94    1
    21    95    96    1
    22   118   119    1
    23   118   115    1
    24   114   115    1
    25   119   120    1
    26    41    43   ar
    27    41    39   ar
    28    43    44   ar
    29   115   116    1
    30    56    55    1
    31    38    39    1
    32    38    35    1
    33    39    40   ar
    34    44    42   ar
    35   120   121    1
    36    25    23   am
    37   121   122    2
    38    36    35    1
    39    36    37    2
    40   116   117    2
    41    24    23    2
    42    34    35    1
    43    55    54    1
    44    55    57    1
    45    23    22    1
    46    54    51    1
    47    78    76   ar
    48    78    79   ar
    49    40    42   ar
    50    21    20    2
    51    76    74   ar
    52   122   124    1
    53   122   123    1
    54    80    79    1
    55    79    77   ar
    56    74    73    1
    57    74    75   ar
    58    20    19    1
    59     8     6    1
    60    77    75   ar
    61    73    70    1
    62    22    19    1
    63    51    52    1
    64    51    50    1
    65    52    53    2
    66    50    47   am
    67    19    18    1
    68   130   129    1
    69     3     4    2
    70     3     2    1
    71    28    29    2
    72    28    27    1
    73    45    46    1
    74     6     7    1
    75     6     5    1
    76   125   126    1
    77    70    71    1
    78    70    69    1
    79    72    71    2
    80    18    11   am
    81     5     2    1
    82    47    46    1
    83    47    48    2
    84    26    27    1
    85     2     1    1
    86   129   126    1
    87    69    60   am
    88    27    30    1
    89    46    49    1
    90   126   127    1
    91    30    31    1
    92    11    12    2
    93    11    10    1
    94     9    10    1
    95    88    87    1
    96    88    89    1
    97    33    31    1
    98    31    32    1
    99    87    86    1
   100    10    13    1
   101    60    59    1
   102    60    61    2
   103    85    86    1
   104    85    82    1
   105    62    59    1
   106    62    63    1
   107    58    59    1
   108    83    84    2
   109    83    82    1
   110   127   128    2
   111    13    14    1
   112    63    64    1
   113    82    81    1
   114    14    15    1
   115    64    65    1
   116    16    15    2
   117    15    17   am
   118    65    66    2
   119    66    67    1
   120    66    68    1
