@<TRIPOS>MOLECULE
tmp/1hk5A07.pdb
 161 151 0 0 0
SMALL
GASTEIGER

@<TRIPOS>ATOM
      1  N         25.0460   18.1860   31.9830 N.3   182  GLU182     -0.1245
      2  CA        25.0620   18.4180   30.5430 C.3   182  GLU182      0.1567
      3  C         26.3180   17.8800   29.8620 C.2   182  GLU182      0.2260
      4  O         26.2520   17.3850   28.7460 O.2   182  GLU182     -0.2867
      5  CB        24.9160   19.9060   30.2280 C.3   182  GLU182      0.0388
      6  CG        25.2380   20.2310   28.7790 C.3   182  GLU182      0.1160
      7  CD        24.9590   21.6760   28.4190 C.2   182  GLU182      0.3649
      8  OE1       25.3390   22.5710   29.2090 O.co2 182  GLU182     -0.2457
      9  OE2       24.3680   21.9120   27.3400 O.co2 182  GLU182     -0.2457
     10  N         28.1380   15.3240   30.9240 N.3   184  ARG184     -0.1231
     11  CA        28.0240   13.8790   30.9660 C.3   184  ARG184      0.1694
     12  C         27.1470   13.3670   29.8200 C.2   184  ARG184      0.2592
     13  O         27.5610   12.4920   29.0620 O.2   184  ARG184     -0.2718
     14  CB        27.4520   13.4500   32.3200 C.3   184  ARG184      0.0321
     15  CG        27.2810   11.9550   32.5130 C.3   184  ARG184      0.0489
     16  CD        26.1720   11.7130   33.5070 C.3   184  ARG184      0.2205
     17  NE        25.0060   12.5100   33.1310 N.pl3 184  ARG184     -0.0865
     18  CZ        24.0780   12.9460   33.9810 C.cat 184  ARG184      0.5346
     19  NH1       24.1730   12.6570   35.2780 N.pl3 184  ARG184      0.1354
     20  NH2       23.0720   13.6940   33.5360 N.pl3 184  ARG184      0.1354
     21  N         25.9400   13.9040   29.6800 N.am  185  ASP185     -0.1960
     22  CA        25.0640   13.4550   28.6010 C.3   185  ASP185      0.1840
     23  C         25.6920   13.7050   27.2290 C.2   185  ASP185      0.2621
     24  O         25.5860   12.8900   26.3120 O.2   185  ASP185     -0.2715
     25  CB        23.7080   14.1560   28.6790 C.3   185  ASP185      0.1450
     26  CG        22.8900   13.7090   29.8770 C.2   185  ASP185      0.3671
     27  OD1       23.2010   12.6250   30.4250 O.co2 185  ASP185     -0.2456
     28  OD2       21.9340   14.4340   30.2560 O.co2 185  ASP185     -0.2456
     29  N         26.3510   14.8430   27.0930 N.am  186  GLU186     -0.1977
     30  CA        26.9990   15.1790   25.8430 C.3   186  GLU186      0.1602
     31  C         28.1810   14.2150   25.6200 C.2   186  GLU186      0.2287
     32  O         28.4600   13.7860   24.4930 O.2   186  GLU186     -0.2864
     33  CB        27.4650   16.6290   25.9120 C.3   186  GLU186      0.0415
     34  CG        27.5390   17.3230   24.5850 C.3   186  GLU186      0.1163
     35  CD        27.6090   18.8310   24.7390 C.2   186  GLU186      0.3649
     36  OE1       26.6370   19.4170   25.2720 O.co2 186  GLU186     -0.2457
     37  OE2       28.6310   19.4250   24.3260 O.co2 186  GLU186     -0.2457
     38  N         28.3850   11.1420   26.8280 N.3   188  LYS188     -0.1231
     39  CA        27.8170    9.8370   26.5200 C.3   188  LYS188      0.1693
     40  C         27.2710    9.7860   25.0890 C.2   188  LYS188      0.2591
     41  O         27.4030    8.7670   24.3980 O.2   188  LYS188     -0.2718
     42  CB        26.7250    9.4710   27.5350 C.3   188  LYS188      0.0285
     43  CG        27.2650    9.0620   28.9060 C.3   188  LYS188      0.0035
     44  CD        26.1900    8.4830   29.8320 C.3   188  LYS188      0.0206
     45  CE        25.2230    9.5580   30.3320 C.3   188  LYS188      0.1093
     46  NZ        24.3240    9.0900   31.4480 N.3   188  LYS188     -0.1314
     47  N         26.6800   10.8890   24.6350 N.am  189  ALA189     -0.1980
     48  CA        26.1470   10.9430   23.2800 C.3   189  ALA189      0.1597
     49  C         27.2910   10.8250   22.2770 C.2   189  ALA189      0.2287
     50  O         27.2180   10.0540   21.3130 O.2   189  ALA189     -0.2864
     51  CB        25.3970   12.2330   23.0590 C.3   189  ALA189      0.0319
     52  N         28.4530    7.1290   22.0950 N.3   192  ALA192     -0.1231
     53  CA        27.5020    6.2480   21.4340 C.3   192  ALA192      0.1694
     54  C         27.5480    6.4240   19.9170 C.2   192  ALA192      0.2591
     55  O         27.5140    5.4490   19.1670 O.2   192  ALA192     -0.2718
     56  CB        26.0980    6.5280   21.9490 C.3   192  ALA192      0.0304
     57  N         27.6270    7.6740   19.4740 N.am  193  LYS193     -0.1980
     58  CA        27.6760    7.9700   18.0560 C.3   193  LYS193      0.1596
     59  C         28.9610    7.4230   17.4840 C.2   193  LYS193      0.2287
     60  O         28.9910    6.9820   16.3450 O.2   193  LYS193     -0.2864
     61  CB        27.6590    9.4710   17.8060 C.3   193  LYS193      0.0298
     62  CG        26.4130   10.2040   18.1930 C.3   193  LYS193      0.0038
     63  CD        26.5090   11.6170   17.6760 C.3   193  LYS193      0.0206
     64  CE        25.2790   12.4060   18.0320 C.3   193  LYS193      0.1093
     65  NZ        25.2390   13.7020   17.3010 N.3   193  LYS193     -0.1314
     66  N         13.1270    4.5290   31.2100 N.3   423  GLU423     -0.1245
     67  CA        14.3190    5.1930   30.7040 C.3   423  GLU423      0.1567
     68  C         14.1310    5.6800   29.2700 C.2   423  GLU423      0.2260
     69  O         14.4100    6.8430   28.9600 O.2   423  GLU423     -0.2867
     70  CB        15.5390    4.2660   30.7630 C.3   423  GLU423      0.0388
     71  CG        16.8500    5.0230   30.5020 C.3   423  GLU423      0.1160
     72  CD        18.0950    4.1340   30.4460 C.2   423  GLU423      0.3649
     73  OE1       18.2330    3.3400   29.4840 O.co2 423  GLU423     -0.2457
     74  OE2       18.9430    4.2380   31.3680 O.co2 423  GLU423     -0.2457
     75  N         11.7650    8.5330   29.0700 N.3   426  ARG426     -0.1231
     76  CA        12.3210    9.7730   29.5720 C.3   426  ARG426      0.1694
     77  C         13.2500   10.4070   28.5430 C.2   426  ARG426      0.2592
     78  O         13.2550   11.6280   28.3920 O.2   426  ARG426     -0.2718
     79  CB        13.0420    9.5420   30.9000 C.3   426  ARG426      0.0321
     80  CG        12.0990    9.0710   32.0010 C.3   426  ARG426      0.0489
     81  CD        12.7640    8.9860   33.3710 C.3   426  ARG426      0.2205
     82  NE        12.4780   10.1690   34.1700 N.pl3 426  ARG426     -0.0865
     83  CZ        13.3650   11.1140   34.4440 C.cat 426  ARG426      0.5346
     84  NH1       14.6080   11.0120   33.9870 N.pl3 426  ARG426      0.1354
     85  NH2       13.0010   12.1690   35.1590 N.pl3 426  ARG426      0.1354
     86  N         14.0270    9.5980   27.8280 N.am  427  ASN427     -0.1974
     87  CA        14.9200   10.1470   26.8110 C.3   427  ASN427      0.1688
     88  C         14.1350   10.6760   25.6150 C.2   427  ASN427      0.2292
     89  O         14.4740   11.7210   25.0440 O.2   427  ASN427     -0.2864
     90  CB        15.9100    9.0970   26.3210 C.3   427  ASN427      0.1181
     91  CG        16.8030    8.6060   27.4090 C.2   427  ASN427      0.2629
     92  OD1       16.9370    9.2580   28.4390 O.2   427  ASN427     -0.2716
     93  ND2       17.4380    7.4570   27.1940 N.am  427  ASN427     -0.0877
     94  N         12.9600   13.9660   26.3940 N.3   430  LYS430     -0.1231
     95  CA        14.0040   14.9720   26.2800 C.3   430  LYS430      0.1693
     96  C         14.1030   15.3910   24.8280 C.2   430  LYS430      0.2591
     97  O         13.9210   16.5540   24.5000 O.2   430  LYS430     -0.2718
     98  CB        15.3620   14.4210   26.7050 C.3   430  LYS430      0.0285
     99  CG        15.5800   14.2620   28.1970 C.3   430  LYS430      0.0035
    100  CD        17.0610   14.0210   28.4430 C.3   430  LYS430      0.0206
    101  CE        17.3700   13.6800   29.8870 C.3   430  LYS430      0.1093
    102  NZ        18.8320   13.4120   30.0480 N.3   430  LYS430     -0.1314
    103  N         14.3930   14.4340   23.9550 N.am  431  VAL431     -0.1980
    104  CA        14.5140   14.7320   22.5320 C.3   431  VAL431      0.1595
    105  C         13.4100   15.6960   22.1120 C.2   431  VAL431      0.2287
    106  O         13.6310   16.5880   21.2970 O.2   431  VAL431     -0.2864
    107  CB        14.4390   13.4480   21.6810 C.3   431  VAL431      0.0276
    108  CG1       14.6270   13.7860   20.2140 C.3   431  VAL431      0.0022
    109  CG2       15.5100   12.4700   22.1320 C.3   431  VAL431      0.0022
    110  N         14.3500   19.1390   23.2770 N.3   434  LYS434     -0.1245
    111  CA        15.6060   19.5850   22.7040 C.3   434  LYS434      0.1561
    112  C         15.4530   19.9130   21.2230 C.2   434  LYS434      0.2260
    113  O         16.2500   20.6710   20.6740 O.2   434  LYS434     -0.2867
    114  CB        16.6570   18.4910   22.8610 C.3   434  LYS434      0.0271
    115  CG        18.0860   18.9780   22.9250 C.3   434  LYS434      0.0035
    116  CD        18.6310   18.8330   24.3510 C.3   434  LYS434      0.0206
    117  CE        20.1040   19.2200   24.4300 C.3   434  LYS434      0.1093
    118  NZ        20.6790   18.9960   25.7840 N.3   434  LYS434     -0.1314
    119  N         19.2680   12.8360   14.7600 N.3   449  ASP449     -0.1225
    120  CA        20.4770   12.8160   15.5630 C.3   449  ASP449      0.1805
    121  C         20.2930   12.1710   16.9360 C.2   449  ASP449      0.2597
    122  O         21.0690   11.3010   17.3240 O.2   449  ASP449     -0.2718
    123  CB        20.9900   14.2450   15.7370 C.3   449  ASP449      0.1424
    124  CG        22.5060   14.3230   15.7570 C.2   449  ASP449      0.3668
    125  OD1       23.1660   13.2680   15.8790 O.co2 449  ASP449     -0.2456
    126  OD2       23.0390   15.4470   15.6510 O.co2 449  ASP449     -0.2456
    127  N         19.2690   12.6020   17.6640 N.am  450  TYR450     -0.1976
    128  CA        19.0010   12.0760   18.9930 C.3   450  TYR450      0.1639
    129  C         18.3440   10.7050   18.9750 C.2   450  TYR450      0.2290
    130  O         18.6200    9.8720   19.8340 O.2   450  TYR450     -0.2864
    131  CB        18.1190   13.0430   19.7870 C.3   450  TYR450      0.0560
    132  CG        18.8260   14.2780   20.3200 C.ar  450  TYR450     -0.0198
    133  CD1       18.8880   14.5260   21.6910 C.ar  450  TYR450     -0.0009
    134  CD2       19.3870   15.2210   19.4580 C.ar  450  TYR450     -0.0009
    135  CE1       19.4860   15.6890   22.1950 C.ar  450  TYR450      0.0417
    136  CE2       19.9880   16.3830   19.9490 C.ar  450  TYR450      0.0417
    137  CZ        20.0310   16.6110   21.3180 C.ar  450  TYR450      0.1957
    138  OH        20.6010   17.7620   21.8120 O.3   450  TYR450     -0.2866
    139  N         20.9330    7.4600   18.6520 N.3   453  VAL453     -0.1231
    140  CA        21.6420    6.8970   19.7890 C.3   453  VAL453      0.1692
    141  C         20.6560    6.2380   20.7290 C.2   453  VAL453      0.2591
    142  O         20.9370    5.1750   21.2690 O.2   453  VAL453     -0.2718
    143  CB        22.4370    7.9490   20.5710 C.3   453  VAL453      0.0266
    144  CG1       23.5180    8.5170   19.6960 C.3   453  VAL453      0.0020
    145  CG2       21.5260    9.0360   21.0680 C.3   453  VAL453      0.0020
    146  N         19.4960    6.8630   20.9120 N.am  454  VAL454     -0.1980
    147  CA        18.4610    6.3290   21.7910 C.3   454  VAL454      0.1595
    148  C         17.9600    4.9610   21.3180 C.2   454  VAL454      0.2287
    149  O         17.7710    4.0520   22.1320 O.2   454  VAL454     -0.2864
    150  CB        17.2450    7.2890   21.8900 C.3   454  VAL454      0.0276
    151  CG1       16.1460    6.6570   22.7220 C.3   454  VAL454      0.0022
    152  CG2       17.6630    8.6030   22.5150 C.3   454  VAL454      0.0022
    153  N         20.6220    2.4060   21.6950 N.3   457  GLN457     -0.1245
    154  CA        20.8210    2.1300   23.1090 C.3   457  GLN457      0.1566
    155  C         19.7680    1.0750   23.4560 C.2   457  GLN457      0.2260
    156  O         20.0440    0.0730   24.1130 O.2   457  GLN457     -0.2867
    157  CB        20.5850    3.4110   23.9160 C.3   457  GLN457      0.0367
    158  CG        20.4830    3.2290   25.4250 C.3   457  GLN457      0.0905
    159  CD        19.6520    4.3280   26.0820 C.2   457  GLN457      0.2608
    160  OE1       19.8720    5.5170   25.8390 O.2   457  GLN457     -0.2717
    161  NE2       18.6920    3.9330   26.9160 N.am  457  GLN457     -0.0878
@<TRIPOS>BOND
     1   119   120    1
     2   120   123    1
     3   120   121    1
     4   126   124   ar
     5   123   124    1
     6   124   125   ar
     7    60    59    2
     8   121   122    2
     9   121   127   am
    10    65    64    1
    11    59    58    1
    12   127   128    1
    13    63    64    1
    14    63    62    1
    15    61    58    1
    16    61    62    1
    17    58    57    1
    18   139   140    1
    19   129   128    1
    20   129   130    2
    21   128   131    1
    22    55    54    2
    23   134   136   ar
    24   134   132   ar
    25    57    54   am
    26   144   143    1
    27   131   132    1
    28   140   143    1
    29   140   141    1
    30    54    53    1
    31   136   137   ar
    32   108   107    1
    33   132   133   ar
    34   143   145    1
    35   113   112    2
    36   141   146   am
    37   141   142    2
    38   146   147    1
    39   112   111    1
    40   106   105    2
    41    50    49    2
    42   148   147    1
    43   148   149    2
    44   137   138    1
    45   137   135   ar
    46    53    56    1
    47    53    52    1
    48   107   109    1
    49   107   104    1
    50   133   135   ar
    51   153   154    1
    52   147   150    1
    53   150   152    1
    54   150   151    1
    55   105   104    1
    56    49    48    1
    57   104   103    1
    58   111   114    1
    59   111   110    1
    60   114   115    1
    61   115   116    1
    62    51    48    1
    63   154   155    1
    64   154   157    1
    65    48    47    1
    66   155   156    2
    67   157   158    1
    68   103    96   am
    69    37    35   ar
    70   116   117    1
    71    41    40    2
    72   117   118    1
    73    32    31    2
    74    97    96    2
    75    34    35    1
    76    34    33    1
    77    47    40   am
    78    35    36   ar
    79    96    95    1
    80    89    88    2
    81    40    39    1
    82   158   159    1
    83    88    87    1
    84    31    30    1
    85   160   159    2
    86    30    33    1
    87    30    29    1
    88   159   161   am
    89    95    94    1
    90    95    98    1
    91    24    23    2
    92    90    87    1
    93    90    91    1
    94    39    38    1
    95    39    42    1
    96    98    99    1
    97    87    86    1
    98    29    23   am
    99    93    91   am
   100    23    22    1
   101     9     7   ar
   102    91    92    2
   103    42    43    1
   104    86    77   am
   105    99   100    1
   106    78    77    2
   107     7     6    1
   108     7     8   ar
   109   100   101    1
   110    77    76    1
   111    22    25    1
   112    22    21    1
   113    25    26    1
   114     4     3    2
   115     6     5    1
   116    43    44    1
   117    69    68    2
   118    13    12    2
   119    75    76    1
   120    68    67    1
   121    73    72   ar
   122    76    79    1
   123    21    12   am
   124    12    11    1
   125    44    45    1
   126     3     2    1
   127    26    28   ar
   128    26    27   ar
   129   101   102    1
   130     5     2    1
   131    45    46    1
   132    72    71    1
   133    72    74   ar
   134    71    70    1
   135     2     1    1
   136    67    70    1
   137    67    66    1
   138    79    80    1
   139    10    11    1
   140    11    14    1
   141    80    81    1
   142    14    15    1
   143    15    16    1
   144    17    16    1
   145    17    18    2
   146    81    82    1
   147    20    18    1
   148    18    19    1
   149    84    83    1
   150    82    83    2
   151    83    85    1
