@<TRIPOS>MOLECULE
tmp/1hk5A06.pdb
 139 133 0 0 0
SMALL
GASTEIGER

@<TRIPOS>ATOM
      1  N         28.8580    4.4630   14.4790 N.3   197  LYS197     -0.1245
      2  CA        29.3230    4.5950   13.1090 C.3   197  LYS197      0.1561
      3  C         30.2430    3.4480   12.7080 C.2   197  LYS197      0.2260
      4  O         30.3060    3.0440   11.5470 O.2   197  LYS197     -0.2867
      5  CB        30.0450    5.9260   12.8930 C.3   197  LYS197      0.0271
      6  CG        29.1150    7.1130   12.7030 C.3   197  LYS197      0.0035
      7  CD        29.8840    8.4040   12.4580 C.3   197  LYS197      0.0206
      8  CE        28.9660    9.4950   11.9130 C.3   197  LYS197      0.1093
      9  NZ        29.6380   10.8360   11.8930 N.3   197  LYS197     -0.1314
     10  N         25.5810    7.3640    2.9660 N.3   212  TRP212     -0.1241
     11  CA        25.2980    8.1840    4.1290 C.3   212  TRP212      0.1605
     12  C         26.1180    9.4900    4.0910 C.2   212  TRP212      0.2264
     13  O         25.5970   10.5890    4.3370 O.2   212  TRP212     -0.2867
     14  CB        25.6320    7.3900    5.4010 C.3   212  TRP212      0.0550
     15  CG        25.1890    8.1500    6.6030 C.ar  212  TRP212      0.0003
     16  CD1       23.9480    8.1470    7.1580 C.ar  212  TRP212      0.0946
     17  CD2       25.9530    9.0890    7.3600 C.ar  212  TRP212      0.0152
     18  NE1       23.8810    9.0360    8.2020 N.ar  212  TRP212     -0.2442
     19  CE2       25.0980    9.6510    8.3280 C.ar  212  TRP212      0.0810
     20  CE3       27.2800    9.5410    7.2800 C.ar  212  TRP212      0.0012
     21  CZ2       25.5140   10.6540    9.2090 C.ar  212  TRP212      0.0191
     22  CZ3       27.7000   10.5390    8.1570 C.ar  212  TRP212      0.0001
     23  CH2       26.8150   11.0850    9.1080 C.ar  212  TRP212      0.0015
     24  N         25.0740   13.6160    3.6930 N.3   216  HIS216     -0.1226
     25  CA        25.5190   14.4160    4.8130 C.3   216  HIS216      0.1752
     26  C         26.4330   15.5450    4.3740 C.2   216  HIS216      0.2595
     27  O         26.1930   16.6940    4.6980 O.2   216  HIS216     -0.2718
     28  CB        26.2570   13.5220    5.8010 C.3   216  HIS216      0.0759
     29  CG        26.6120   14.2020    7.0830 C.ar  216  HIS216      0.0818
     30  ND1       25.6640   14.5980    8.0030 N.ar  216  HIS216     -0.2268
     31  CD2       27.8130   14.5580    7.5980 C.ar  216  HIS216      0.1154
     32  CE1       26.2670   15.1690    9.0300 C.ar  216  HIS216      0.1986
     33  NE2       27.5700   15.1580    8.8100 N.ar  216  HIS216     -0.2212
     34  N         27.4830   15.2150    3.6320 N.am  217  LEU217     -0.1980
     35  CA        28.4340   16.2200    3.1680 C.3   217  LEU217      0.1596
     36  C         27.8670   17.2610    2.2100 C.2   217  LEU217      0.2287
     37  O         28.3230   18.4070    2.2090 O.2   217  LEU217     -0.2864
     38  CB        29.6530   15.5620    2.5070 C.3   217  LEU217      0.0297
     39  CG        30.7150   15.0110    3.4540 C.3   217  LEU217      0.0022
     40  CD1       31.9240   14.5350    2.6660 C.3   217  LEU217      0.0001
     41  CD2       31.1290   16.0860    4.4250 C.3   217  LEU217      0.0001
     42  N         25.8460   20.1820    3.8840 N.3   220  ARG220     -0.1231
     43  CA        26.6890   21.2170    4.4670 C.3   220  ARG220      0.1694
     44  C         27.5430   22.0100    3.4940 C.2   220  ARG220      0.2592
     45  O         27.8780   23.1740    3.7580 O.2   220  ARG220     -0.2718
     46  CB        27.5970   20.6140    5.5280 C.3   220  ARG220      0.0321
     47  CG        26.8500   20.1000    6.7150 C.3   220  ARG220      0.0489
     48  CD        27.7800   19.9620    7.8770 C.3   220  ARG220      0.2205
     49  NE        27.1670   19.2150    8.9640 N.pl3 220  ARG220     -0.0865
     50  CZ        27.7780   18.9730   10.1140 C.cat 220  ARG220      0.5346
     51  NH1       29.0130   19.4280   10.3090 N.pl3 220  ARG220      0.1354
     52  NH2       27.1630   18.2710   11.0560 N.pl3 220  ARG220      0.1354
     53  N         27.9230   21.3790    2.3890 N.am  221  PHE221     -0.1976
     54  CA        28.7320   22.0560    1.3900 C.3   221  PHE221      0.1639
     55  C         27.9670   22.0360    0.0770 C.2   221  PHE221      0.2290
     56  O         28.4620   21.5330   -0.9220 O.2   221  PHE221     -0.2864
     57  CB        30.0870   21.3570    1.2200 C.3   221  PHE221      0.0560
     58  CG        30.8190   21.1050    2.5160 C.ar  221  PHE221     -0.0200
     59  CD1       30.8280   22.0610    3.5310 C.ar  221  PHE221     -0.0042
     60  CD2       31.5410   19.9220    2.6980 C.ar  221  PHE221     -0.0042
     61  CE1       31.5480   21.8460    4.7100 C.ar  221  PHE221     -0.0003
     62  CE2       32.2650   19.6930    3.8660 C.ar  221  PHE221     -0.0003
     63  CZ        32.2710   20.6560    4.8790 C.ar  221  PHE221     -0.0000
     64  N         36.9410   10.5460    3.7180 N.3   236  LEU236     -0.1245
     65  CA        36.2060   10.4200    4.9690 C.3   236  LEU236      0.1561
     66  C         35.9450    8.9440    5.2730 C.2   236  LEU236      0.2260
     67  O         35.9130    8.5320    6.4300 O.2   236  LEU236     -0.2867
     68  CB        34.8780   11.1820    4.8820 C.3   236  LEU236      0.0270
     69  CG        34.1130   11.3630    6.1910 C.3   236  LEU236      0.0019
     70  CD1       34.9750   12.1600    7.1420 C.3   236  LEU236      0.0001
     71  CD2       32.8140   12.0860    5.9530 C.3   236  LEU236      0.0001
     72  N         39.2060    7.4810    6.5750 N.3   239  VAL239     -0.1231
     73  CA        39.4820    7.9220    7.9370 C.3   239  VAL239      0.1692
     74  C         38.6930    7.1540    8.9800 C.2   239  VAL239      0.2592
     75  O         39.2450    6.7710   10.0100 O.2   239  VAL239     -0.2718
     76  CB        39.2190    9.4540    8.1080 C.3   239  VAL239      0.0266
     77  CG1       39.4470    9.8740    9.5490 C.3   239  VAL239      0.0020
     78  CG2       40.1480   10.2450    7.1970 C.3   239  VAL239      0.0020
     79  N         37.4070    6.9320    8.7210 N.am  240  HIS240     -0.1976
     80  CA        36.5720    6.1960    9.6640 C.3   240  HIS240      0.1656
     81  C         36.9950    4.7410    9.7900 C.2   240  HIS240      0.2291
     82  O         36.9950    4.1840   10.8890 O.2   240  HIS240     -0.2864
     83  CB        35.1040    6.2810    9.2690 C.3   240  HIS240      0.0771
     84  CG        34.4160    7.4870    9.8190 C.ar  240  HIS240      0.0820
     85  ND1       34.2060    7.6660   11.1680 N.ar  240  HIS240     -0.2267
     86  CD2       33.9050    8.5820    9.2080 C.ar  240  HIS240      0.1154
     87  CE1       33.5930    8.8200   11.3660 C.ar  240  HIS240      0.1986
     88  NE2       33.3980    9.3950   10.1920 N.ar  240  HIS240     -0.2212
     89  N         43.1270   12.2490    9.9240 N.3   255  ARG255     -0.1245
     90  CA        42.2330   13.3600   10.2170 C.3   255  ARG255      0.1563
     91  C         42.9360   14.6960   10.0080 C.2   255  ARG255      0.2260
     92  O         42.3230   15.6700    9.5810 O.2   255  ARG255     -0.2867
     93  CB        41.7200   13.2810   11.6600 C.3   255  ARG255      0.0307
     94  CG        40.7510   12.1380   11.8890 C.3   255  ARG255      0.0489
     95  CD        40.0970   12.2090   13.2400 C.3   255  ARG255      0.2205
     96  NE        39.6590   13.5630   13.5260 N.pl3 255  ARG255     -0.0865
     97  CZ        38.6220   13.8620   14.2990 C.cat 255  ARG255      0.5346
     98  NH1       37.9070   12.8950   14.8560 N.pl3 255  ARG255      0.1354
     99  NH2       38.3140   15.1290   14.5370 N.pl3 255  ARG255      0.1354
    100  N         43.1580   15.3130    6.1450 N.3   258  LEU258     -0.1231
    101  CA        41.8550   15.7070    5.6320 C.3   258  LEU258      0.1693
    102  C         41.4670   17.1160    6.0490 C.2   258  LEU258      0.2591
    103  O         40.8150   17.8300    5.3020 O.2   258  LEU258     -0.2718
    104  CB        40.7860   14.7170    6.0950 C.3   258  LEU258      0.0284
    105  CG        39.3660   14.9260    5.5620 C.3   258  LEU258      0.0019
    106  CD1       39.3930   15.0800    4.0540 C.3   258  LEU258      0.0001
    107  CD2       38.5090   13.7540    5.9520 C.3   258  LEU258      0.0001
    108  N         41.8620   17.5210    7.2440 N.am  259  ALA259     -0.1980
    109  CA        41.5420   18.8610    7.7000 C.3   259  ALA259      0.1597
    110  C         42.3960   19.8240    6.8820 C.2   259  ALA259      0.2287
    111  O         41.9720   20.9350    6.5570 O.2   259  ALA259     -0.2864
    112  CB        41.8520   19.0000    9.1900 C.3   259  ALA259      0.0319
    113  N         41.0010   20.1510    3.2230 N.3   262  ILE262     -0.1245
    114  CA        39.8240   21.0020    3.2390 C.3   262  ILE262      0.1561
    115  C         40.1040   22.4940    3.3040 C.2   262  ILE262      0.2260
    116  O         39.5640   23.2490    2.4990 O.2   262  ILE262     -0.2867
    117  CB        38.8650   20.6150    4.3950 C.3   262  ILE262      0.0252
    118  CG1       38.2020   19.2710    4.0780 C.3   262  ILE262      0.0019
    119  CG2       37.7910   21.6870    4.5840 C.3   262  ILE262      0.0019
    120  CD1       37.1420   18.8390    5.0750 C.3   262  ILE262      0.0001
    121  N         40.0800   19.6710   12.9160 N.3   285  SER285     -0.1217
    122  CA        39.1490   18.5850   12.6130 C.3   285  SER285      0.1889
    123  C         37.8390   18.7380   13.3660 C.2   285  SER285      0.2288
    124  O         36.7730   18.8430   12.7680 O.2   285  SER285     -0.2866
    125  CB        39.7550   17.2380   12.9960 C.3   285  SER285      0.2089
    126  OG        41.1050   17.1540   12.6010 O.3   285  SER285     -0.2183
    127  N         35.6740   21.6880   12.2060 N.3   288  ILE288     -0.1231
    128  CA        35.0780   21.3920   10.9170 C.3   288  ILE288      0.1692
    129  C         33.9320   20.3830   10.9870 C.2   288  ILE288      0.2591
    130  O         32.9510   20.5030   10.2500 O.2   288  ILE288     -0.2718
    131  CB        36.1510   20.8750    9.9220 C.3   288  ILE288      0.0266
    132  CG1       37.2690   21.9140    9.7850 C.3   288  ILE288      0.0019
    133  CG2       35.5170   20.5980    8.5470 C.3   288  ILE288      0.0020
    134  CD1       38.3330   21.5430    8.7830 C.3   288  ILE288      0.0001
    135  N         34.0400   19.3920   11.8620 N.am  289  ALA289     -0.1980
    136  CA        32.9840   18.3970   11.9540 C.3   289  ALA289      0.1597
    137  C         31.6780   19.0010   12.4470 C.2   289  ALA289      0.2287
    138  O         30.6050   18.5070   12.1290 O.2   289  ALA289     -0.2864
    139  CB        33.4100   17.2590   12.8560 C.3   289  ALA289      0.0319
@<TRIPOS>BOND
     1    56    55    2
     2    55    54    1
     3    57    54    1
     4    57    58    1
     5    54    53    1
     6    37    36    2
     7    36    35    1
     8    53    44   am
     9   116   115    2
    10    38    35    1
    11    38    39    1
    12    58    60   ar
    13    58    59   ar
    14    40    39    1
    15    60    62   ar
    16    10    11    1
    17    35    34    1
    18   113   114    1
    19   114   115    1
    20   114   117    1
    21    39    41    1
    22    44    45    2
    23    44    43    1
    24    59    61   ar
    25    34    26   am
    26    24    25    1
    27    64    65    1
    28    62    63   ar
    29    42    43    1
    30   106   105    1
    31   118   117    1
    32   118   120    1
    33    12    11    1
    34    12    13    2
    35    11    14    1
    36    26    27    2
    37    26    25    1
    38   117   119    1
    39    43    46    1
    40    61    63   ar
    41    25    28    1
    42    68    65    1
    43    68    69    1
    44    65    66    1
    45    66    67    2
    46   103   102    2
    47    14    15    1
    48    46    47    1
    49   105   107    1
    50   105   104    1
    51   101   102    1
    52   101   104    1
    53   101   100    1
    54    28    29    1
    55    71    69    1
    56   102   108   am
    57    69    70    1
    58   111   110    2
    59    72    73    1
    60    15    16   ar
    61    15    17   ar
    62    47    48    1
    63   110   109    1
    64    29    31   ar
    65    29    30   ar
    66    16    18   ar
    67    78    76    1
    68   108   109    1
    69    20    17   ar
    70    20    22   ar
    71    17    19   ar
    72    31    33   ar
    73   109   112    1
    74    48    49    1
    75    73    76    1
    76    73    74    1
    77    30    32   ar
    78    76    77    1
    79    22    23   ar
    80    18    19   ar
    81    19    21   ar
    82   133   131    1
    83    79    74   am
    84    79    80    1
    85   134   132    1
    86    33    32   ar
    87    49    50    2
    88    74    75    2
    89    23    21   ar
    90    86    84   ar
    91    86    88   ar
    92    83    80    1
    93    83    84    1
    94    92    91    2
    95    80    81    1
    96   132   131    1
    97    81    82    2
    98    84    85   ar
    99   131   128    1
   100    89    90    1
   101    91    90    1
   102    50    51    1
   103    50    52    1
   104    88    87   ar
   105    90    93    1
   106   130   129    2
   107   128   129    1
   108   128   127    1
   109   129   135   am
   110    85    87   ar
   111     4     3    2
   112    93    94    1
   113   135   136    1
   114    94    95    1
   115     9     8    1
   116     8     7    1
   117   136   137    1
   118   136   139    1
   119   138   137    2
   120     7     6    1
   121   126   125    1
   122   122   121    1
   123   122   125    1
   124   122   123    1
   125     6     5    1
   126     3     2    1
   127   124   123    2
   128     5     2    1
   129     2     1    1
   130    95    96    1
   131    96    97    2
   132    97    99    1
   133    97    98    1
