@<TRIPOS>MOLECULE
tmp/1hk8A01.pdb
 123 122 0 0 0
SMALL
GASTEIGER

@<TRIPOS>ATOM
      1  N         23.6070   86.6680   82.0850 N.3    33  HIS33      -0.1241
      2  CA        24.6740   86.2220   81.1810 C.3    33  HIS33       0.1621
      3  C         25.1110   87.3280   80.2130 C.2    33  HIS33       0.2264
      4  O         26.2970   87.5540   80.0420 O.2    33  HIS33      -0.2867
      5  CB        24.2210   84.9520   80.4300 C.3    33  HIS33       0.0745
      6  CG        25.1320   84.5250   79.3200 C.ar   33  HIS33       0.0817
      7  ND1       26.2060   83.6900   79.5220 N.ar   33  HIS33      -0.2268
      8  CD2       25.1090   84.7960   77.9890 C.ar   33  HIS33       0.1154
      9  CE1       26.8240   83.4840   78.3700 C.ar   33  HIS33       0.1986
     10  NE2       26.1810   84.1490   77.4260 N.ar   33  HIS33      -0.2212
     11  N         28.2790   83.4520   83.5720 N.3    39  HIS39      -0.1226
     12  CA        28.5280   82.9780   82.2280 C.3    39  HIS39       0.1752
     13  C         28.0350   81.5450   82.1080 C.2    39  HIS39       0.2596
     14  O         28.5520   80.6360   82.7600 O.2    39  HIS39      -0.2718
     15  CB        30.0160   83.0210   81.8930 C.3    39  HIS39       0.0759
     16  CG        30.3160   82.7200   80.4570 C.ar   39  HIS39       0.0818
     17  ND1       30.2360   83.6760   79.4690 N.ar   39  HIS39      -0.2268
     18  CD2       30.6650   81.5650   79.8400 C.ar   39  HIS39       0.1154
     19  CE1       30.5540   83.1310   78.3080 C.ar   39  HIS39       0.1986
     20  NE2       30.8090   81.8480   78.5040 N.ar   39  HIS39      -0.2212
     21  N         27.0100   81.3710   81.2900 N.am   40  VAL40      -0.1966
     22  CA        26.5070   80.0610   80.9290 C.3    40  VAL40       0.1727
     23  C         27.3450   79.5760   79.7600 C.2    40  VAL40       0.2616
     24  O         27.2910   80.1570   78.6550 O.2    40  VAL40      -0.2715
     25  CB        25.0330   80.1380   80.5570 C.3    40  VAL40       0.0290
     26  CG1       24.4980   78.7550   80.2520 C.3    40  VAL40       0.0023
     27  CG2       24.2520   80.8070   81.7150 C.3    40  VAL40       0.0023
     28  N         28.1490   78.5400   80.0110 N.am   41  HIS41      -0.1959
     29  CA        29.0900   78.0470   79.0070 C.3    41  HIS41       0.1787
     30  C         28.3330   77.2690   77.9400 C.2    41  HIS41       0.2620
     31  O         27.2530   76.7560   78.2170 O.2    41  HIS41      -0.2715
     32  CB        30.1700   77.1870   79.6390 C.3    41  HIS41       0.0785
     33  CG        31.1220   77.9390   80.5190 C.ar   41  HIS41       0.0821
     34  ND1       32.3290   78.4170   80.0650 N.ar   41  HIS41      -0.2267
     35  CD2       31.0620   78.2610   81.8370 C.ar   41  HIS41       0.1154
     36  CE1       32.9710   79.0080   81.0610 C.ar   41  HIS41       0.1986
     37  NE2       32.2190   78.9380   82.1460 N.ar   41  HIS41      -0.2212
     38  N         28.8560   77.2630   76.7080 N.am   42  ASP42      -0.1957
     39  CA        28.3900   76.3630   75.6320 C.3    42  ASP42       0.1840
     40  C         26.9170   76.5420   75.2360 C.2    42  ASP42       0.2622
     41  O         26.2200   75.5810   74.9080 O.2    42  ASP42      -0.2715
     42  CB        28.6750   74.8970   76.0130 C.3    42  ASP42       0.1450
     43  CG        30.0740   74.7210   76.5780 C.2    42  ASP42       0.3671
     44  OD1       30.2070   74.5920   77.8210 O.co2  42  ASP42      -0.2456
     45  OD2       31.1020   74.7560   75.8700 O.co2  42  ASP42      -0.2456
     46  N         26.4810   77.7900   75.2220 N.am   43  ILE43      -0.1963
     47  CA        25.1140   78.1440   74.8930 C.3    43  ILE43       0.1727
     48  C         24.8250   77.9270   73.4040 C.2    43  ILE43       0.2616
     49  O         23.6680   77.7590   72.9970 O.2    43  ILE43      -0.2715
     50  CB        24.8470   79.6260   75.3450 C.3    43  ILE43       0.0290
     51  CG1       23.3540   79.9000   75.4410 C.3    43  ILE43       0.0022
     52  CG2       25.5370   80.6490   74.4190 C.3    43  ILE43       0.0023
     53  CD1       22.7190   79.2470   76.6380 C.3    43  ILE43       0.0001
     54  N         25.8730   77.9440   72.5920 N.am   44  ASP44      -0.1971
     55  CA        25.7670   77.5520   71.1770 C.3    44  ASP44       0.1709
     56  C         25.5340   76.0310   70.9300 C.2    44  ASP44       0.2293
     57  O         25.3450   75.6270   69.7730 O.2    44  ASP44      -0.2864
     58  CB        26.9620   78.0750   70.3540 C.3    44  ASP44       0.1436
     59  CG        28.3490   77.5980   70.8770 C.2    44  ASP44       0.3671
     60  OD1       28.5690   77.4620   72.1140 O.co2  44  ASP44      -0.2456
     61  OD2       29.3090   77.3610   70.0970 O.co2  44  ASP44      -0.2456
     62  N         38.8670   79.2030   81.2490 N.3   420  ALA420     -0.1231
     63  CA        38.6070   80.5960   80.8600 C.3   420  ALA420      0.1694
     64  C         39.6590   81.1770   79.9290 C.2   420  ALA420      0.2592
     65  O         40.1950   82.2510   80.1960 O.2   420  ALA420     -0.2718
     66  CB        38.4870   81.4590   82.0960 C.3   420  ALA420      0.0304
     67  N         39.9440   80.4510   78.8500 N.am  421  GLU421     -0.1966
     68  CA        40.8780   80.8780   77.8050 C.3   421  GLU421      0.1733
     69  C         40.5690   82.3030   77.3360 C.2   421  GLU421      0.2616
     70  O         41.4470   83.1490   77.3100 O.2   421  GLU421     -0.2715
     71  CB        40.8040   79.8990   76.6130 C.3   421  GLU421      0.0429
     72  CG        41.7800   80.1690   75.4610 C.3   421  GLU421      0.1163
     73  CD        43.2170   79.7550   75.7680 C.2   421  GLU421      0.3649
     74  OE1       43.4360   78.9610   76.7090 O.co2 421  GLU421     -0.2457
     75  OE2       44.1390   80.2160   75.0630 O.co2 421  GLU421     -0.2457
     76  N         39.3210   82.5500   76.9700 N.am  422  ASN422     -0.1958
     77  CA        38.8670   83.8850   76.5640 C.3   422  ASN422      0.1819
     78  C         37.8210   84.5590   77.4930 C.2   422  ASN422      0.2621
     79  O         37.5970   85.7710   77.3800 O.2   422  ASN422     -0.2715
     80  CB        38.3530   83.8550   75.1130 C.3   422  ASN422      0.1195
     81  CG        39.4660   83.5400   74.1040 C.2   422  ASN422      0.2630
     82  OD1       40.2740   84.3990   73.7760 O.2   422  ASN422     -0.2716
     83  ND2       39.5140   82.2990   73.6330 N.am  422  ASN422     -0.0877
     84  N         37.2100   83.7990   78.4080 N.am  423  LEU423     -0.1977
     85  CA        36.3090   84.3630   79.4090 C.3   423  LEU423      0.1596
     86  C         37.0120   85.3860   80.3080 C.2   423  LEU423      0.2287
     87  O         36.3690   86.2820   80.8210 O.2   423  LEU423     -0.2864
     88  CB        35.7050   83.2620   80.2840 C.3   423  LEU423      0.0297
     89  CG        34.6410   83.6610   81.3140 C.3   423  LEU423      0.0022
     90  CD1       33.4070   84.2260   80.5980 C.3   423  LEU423      0.0001
     91  CD2       34.2600   82.4530   82.1650 C.3   423  LEU423      0.0001
     92  N         38.7670   87.7630   79.3070 N.3   425  TYR425     -0.1227
     93  CA        38.5580   89.0390   78.6130 C.3   425  TYR425      0.1736
     94  C         37.1000   89.4100   78.5680 C.2   425  TYR425      0.2595
     95  O         36.7630   90.5830   78.6970 O.2   425  TYR425     -0.2718
     96  CB        39.0510   88.9900   77.1500 C.3   425  TYR425      0.0548
     97  CG        40.4930   88.6180   76.9820 C.ar  425  TYR425     -0.0200
     98  CD1       40.8630   87.3850   76.4380 C.ar  425  TYR425     -0.0009
     99  CD2       41.5010   89.4900   77.3590 C.ar  425  TYR425     -0.0009
    100  CE1       42.2150   87.0360   76.2880 C.ar  425  TYR425      0.0417
    101  CE2       42.8500   89.1490   77.2110 C.ar  425  TYR425      0.0417
    102  CZ        43.1880   87.9260   76.6810 C.ar  425  TYR425      0.1957
    103  OH        44.5030   87.6130   76.5420 O.3   425  TYR425     -0.2866
    104  N         36.2370   88.4290   78.3210 N.am  426  ARG426     -0.1980
    105  CA        34.8040   88.7000   78.1980 C.3   426  ARG426      0.1597
    106  C         34.2590   89.4000   79.4540 C.2   426  ARG426      0.2287
    107  O         33.6430   90.4480   79.3610 O.2   426  ARG426     -0.2864
    108  CB        34.0050   87.4130   77.9450 C.3   426  ARG426      0.0334
    109  CG        32.5560   87.6770   77.5210 C.3   426  ARG426      0.0492
    110  CD        31.5710   86.5630   77.8160 C.3   426  ARG426      0.2205
    111  NE        30.2110   86.9280   77.4120 N.pl3 426  ARG426     -0.0865
    112  CZ        29.1380   86.9340   78.1980 C.cat 426  ARG426      0.5346
    113  NH1       29.1950   86.5360   79.4920 N.pl3 426  ARG426      0.1354
    114  NH2       27.9720   87.3160   77.6740 N.pl3 426  ARG426      0.1354
    115  N         35.6940   92.9080   79.8820 N.3   429  LYS429     -0.1245
    116  CA        35.1430   93.8380   78.8930 C.3   429  LYS429      0.1561
    117  C         33.7620   94.3080   79.3180 C.2   429  LYS429      0.2260
    118  O         33.4440   95.4860   79.1900 O.2   429  LYS429     -0.2867
    119  CB        35.0660   93.1750   77.5110 C.3   429  LYS429      0.0271
    120  CG        34.5630   94.0640   76.3640 C.3   429  LYS429      0.0035
    121  CD        33.4240   93.4030   75.5560 C.3   429  LYS429      0.0206
    122  CE        33.1200   94.1730   74.2610 C.3   429  LYS429      0.1093
    123  NZ        31.6930   94.0120   73.7930 N.3   429  LYS429     -0.1314
@<TRIPOS>BOND
     1    57    56    2
     2    61    59   ar
     3    58    59    1
     4    58    55    1
     5    59    60   ar
     6    56    55    1
     7    55    54    1
     8    54    48   am
     9    49    48    2
    10    48    47    1
    11    83    81   am
    12    82    81    2
    13   123   122    1
    14    81    80    1
    15   122   121    1
    16    52    50    1
    17    47    46    1
    18    47    50    1
    19    41    40    2
    20    75    73   ar
    21    80    77    1
    22    46    40   am
    23    40    39    1
    24    50    51    1
    25    51    53    1
    26    72    73    1
    27    72    71    1
    28   121   120    1
    29    39    42    1
    30    39    38    1
    31    73    74   ar
    32    45    43   ar
    33    42    43    1
    34   100    98   ar
    35   100   102   ar
    36   120   119    1
    37    98    97   ar
    38   103   102    1
    39    77    76    1
    40    77    78    1
    41    43    44   ar
    42    71    68    1
    43   102   101   ar
    44    38    30   am
    45    76    69   am
    46    97    96    1
    47    97    99   ar
    48    96    93    1
    49   101    99   ar
    50    70    69    2
    51    69    68    1
    52    79    78    2
    53   111   110    1
    54   111   112    2
    55    10     8   ar
    56    10     9   ar
    57    78    84   am
    58   119   116    1
    59   109   110    1
    60   109   108    1
    61   114   112    1
    62    68    67    1
    63    30    31    2
    64    30    29    1
    65   108   105    1
    66     8     6   ar
    67   112   113    1
    68   105   104    1
    69   105   106    1
    70    19    20   ar
    71    19    17   ar
    72   104    94   am
    73     9     7   ar
    74    84    85    1
    75    20    18   ar
    76    94    93    1
    77    94    95    2
    78    93    92    1
    79    24    23    2
    80    67    64   am
    81   116   117    1
    82   116   115    1
    83    29    32    1
    84    29    28    1
    85   118   117    2
    86     6     7   ar
    87     6     5    1
    88   107   106    2
    89    85    88    1
    90    85    86    1
    91    17    16   ar
    92    32    33    1
    93    23    28   am
    94    23    22    1
    95    18    16   ar
    96    64    65    2
    97    64    63    1
    98     4     3    2
    99    34    33   ar
   100    34    36   ar
   101     3     2    1
   102    26    25    1
   103    88    89    1
   104    86    87    2
   105     5     2    1
   106    16    15    1
   107    33    35   ar
   108    25    22    1
   109    25    27    1
   110    90    89    1
   111    63    62    1
   112    63    66    1
   113    22    21    1
   114    36    37   ar
   115     2     1    1
   116    21    13   am
   117    89    91    1
   118    35    37   ar
   119    15    12    1
   120    13    12    1
   121    13    14    2
   122    12    11    1
