@<TRIPOS>MOLECULE
tmp/1hkjA02.pdb
 166 162 0 0 0
SMALL
GASTEIGER

@<TRIPOS>ATOM
      1  N          8.5690   62.4370   10.2940 N.3     6  TYR6       -0.1241
      2  CA         7.2470   62.6790    9.7270 C.3     6  TYR6        0.1605
      3  C          6.3600   61.4440    9.5730 C.2     6  TYR6        0.2264
      4  O          6.7800   60.4170    9.0270 O.2     6  TYR6       -0.2867
      5  CB         7.3790   63.3260    8.3610 C.3     6  TYR6        0.0534
      6  CG         7.7340   64.7640    8.4120 C.ar    6  TYR6       -0.0201
      7  CD1        6.7420   65.7350    8.4470 C.ar    6  TYR6       -0.0009
      8  CD2        9.0740   65.1730    8.3800 C.ar    6  TYR6       -0.0009
      9  CE1        7.0680   67.0790    8.4360 C.ar    6  TYR6        0.0417
     10  CE2        9.4200   66.5160    8.3780 C.ar    6  TYR6        0.0417
     11  CZ         8.4110   67.4610    8.4050 C.ar    6  TYR6        0.1957
     12  OH         8.7230   68.7860    8.4300 O.3     6  TYR6       -0.2866
     13  N         -1.7090   58.9800    4.8550 N.3    10  TRP10      -0.1241
     14  CA        -2.2310   58.3320    3.6520 C.3    10  TRP10       0.1605
     15  C         -1.5700   56.9850    3.5630 C.2    10  TRP10       0.2264
     16  O         -1.9550   56.1490    2.7610 O.2    10  TRP10      -0.2867
     17  CB        -1.9750   59.1650    2.3750 C.3    10  TRP10       0.0550
     18  CG        -0.5400   59.5040    2.0330 C.ar   10  TRP10       0.0003
     19  CD1        0.3470   58.7330    1.3140 C.ar   10  TRP10       0.0946
     20  CD2        0.1580   60.7240    2.3400 C.ar   10  TRP10       0.0152
     21  NE1        1.5410   59.4000    1.1520 N.ar   10  TRP10      -0.2442
     22  CE2        1.4570   60.6200    1.7720 C.ar   10  TRP10       0.0810
     23  CE3       -0.1860   61.8950    3.0350 C.ar   10  TRP10       0.0012
     24  CZ2        2.4070   61.6450    1.8800 C.ar   10  TRP10       0.0191
     25  CZ3        0.7570   62.9130    3.1400 C.ar   10  TRP10       0.0001
     26  CH2        2.0390   62.7790    2.5650 C.ar   10  TRP10       0.0015
     27  N         -0.6650   65.2290    6.5650 N.3    37  PHE37      -0.1241
     28  CA        -0.6750   66.6920    6.4490 C.3    37  PHE37       0.1605
     29  C         -2.0450   67.2310    6.8610 C.2    37  PHE37       0.2264
     30  O         -3.0560   66.5240    6.8400 O.2    37  PHE37      -0.2867
     31  CB        -0.4710   67.1370    4.9870 C.3    37  PHE37       0.0534
     32  CG         0.9530   67.2620    4.5620 C.ar   37  PHE37      -0.0203
     33  CD1        1.8040   68.1850    5.1770 C.ar   37  PHE37      -0.0042
     34  CD2        1.4480   66.4750    3.5200 C.ar   37  PHE37      -0.0042
     35  CE1        3.1410   68.3220    4.7570 C.ar   37  PHE37      -0.0003
     36  CE2        2.7630   66.6010    3.0920 C.ar   37  PHE37      -0.0003
     37  CZ         3.6200   67.5250    3.7090 C.ar   37  PHE37      -0.0000
     38  N          2.4140   70.8740    1.9670 N.3    77  GLY77      -0.1210
     39  CA         2.8700   69.7360    1.1990 C.3    77  GLY77       0.1956
     40  C          3.0570   70.0520   -0.2630 C.2    77  GLY77       0.2612
     41  O          2.4770   70.9900   -0.8000 O.2    77  GLY77      -0.2717
     42  N          3.8810   69.2590   -0.9210 N.am   78  TRP78      -0.1962
     43  CA         4.1220   69.4780   -2.3300 C.3    78  TRP78       0.1771
     44  C          2.8140   69.6360   -3.1230 C.2    78  TRP78       0.2619
     45  O          2.6490   70.6150   -3.8650 O.2    78  TRP78      -0.2715
     46  CB         4.9560   68.3330   -2.9030 C.3    78  TRP78       0.0590
     47  CG         5.1580   68.4630   -4.3640 C.ar   78  TRP78       0.0006
     48  CD1        4.6130   67.6800   -5.3480 C.ar   78  TRP78       0.0946
     49  CD2        5.9120   69.4780   -5.0290 C.ar   78  TRP78       0.0152
     50  NE1        4.9820   68.1530   -6.5860 N.ar   78  TRP78      -0.2442
     51  CE2        5.7810   69.2550   -6.4180 C.ar   78  TRP78       0.0810
     52  CE3        6.6860   70.5580   -4.5870 C.ar   78  TRP78       0.0012
     53  CZ2        6.4000   70.0750   -7.3670 C.ar   78  TRP78       0.0191
     54  CZ3        7.2960   71.3690   -5.5250 C.ar   78  TRP78       0.0001
     55  CH2        7.1510   71.1250   -6.9010 C.ar   78  TRP78       0.0015
     56  N          1.8880   68.6940   -2.9600 N.am   79  ASN79      -0.1972
     57  CA         0.6200   68.7410   -3.6840 C.3    79  ASN79       0.1688
     58  C         -0.4650   69.6260   -3.1130 C.2    79  ASN79       0.2292
     59  O         -1.6290   69.4830   -3.4750 O.2    79  ASN79      -0.2864
     60  CB         0.0530   67.3480   -3.8190 C.3    79  ASN79       0.1181
     61  CG         0.7270   66.5830   -4.8880 C.2    79  ASN79       0.2629
     62  OD1        0.7510   67.0180   -6.0450 O.2    79  ASN79      -0.2716
     63  ND2        1.3010   65.4360   -4.5310 N.am   79  ASN79      -0.0877
     64  N          4.1910   72.9410   12.0360 N.3   115  ASP115     -0.1239
     65  CA         5.2670   72.8560   11.0820 C.3   115  ASP115      0.1674
     66  C          4.7300   73.2890    9.7090 C.2   115  ASP115      0.2266
     67  O          3.8930   72.6100    9.0930 O.2   115  ASP115     -0.2867
     68  CB         5.8320   71.4230   11.0340 C.3   115  ASP115      0.1410
     69  CG         6.8110   71.2190    9.8870 C.2   115  ASP115      0.3668
     70  OD1        7.7220   72.0480    9.7340 O.co2 115  ASP115     -0.2456
     71  OD2        6.6720   70.2310    9.1350 O.co2 115  ASP115     -0.2456
     72  N          4.7660   73.8660    5.8120 N.3   117  ASP117     -0.1239
     73  CA         5.3130   73.2580    4.6140 C.3   117  ASP117      0.1674
     74  C          4.5960   73.8220    3.3710 C.2   117  ASP117      0.2266
     75  O          3.7450   73.1550    2.7420 O.2   117  ASP117     -0.2867
     76  CB         5.1720   71.7330    4.6670 C.3   117  ASP117      0.1410
     77  CG         5.8920   71.0560    3.5240 C.2   117  ASP117      0.3668
     78  OD1        6.7590   71.7310    2.9190 O.co2 117  ASP117     -0.2456
     79  OD2        5.6040   69.8680    3.2420 O.co2 117  ASP117     -0.2456
     80  N          5.0330   74.9480   -0.2980 N.3   119  GLU119     -0.1245
     81  CA         5.9770   74.6890   -1.3610 C.3   119  GLU119      0.1567
     82  C          5.6130   75.3820   -2.6650 C.2   119  GLU119      0.2260
     83  O          4.8990   74.8340   -3.4880 O.2   119  GLU119     -0.2867
     84  CB         6.1030   73.1730   -1.5780 C.3   119  GLU119      0.0388
     85  CG         6.0840   72.3580   -0.2810 C.3   119  GLU119      0.1160
     86  CD         7.0080   71.1270   -0.2820 C.2   119  GLU119      0.3649
     87  OE1        7.1360   70.4400   -1.3160 O.co2 119  GLU119     -0.2457
     88  OE2        7.5910   70.8370    0.7750 O.co2 119  GLU119     -0.2457
     89  N          9.4300   73.3960    6.8590 N.3   162  ALA162     -0.1245
     90  CA        10.1860   72.5160    5.9980 C.3   162  ALA162      0.1562
     91  C         10.6880   73.4550    4.8910 C.2   162  ALA162      0.2260
     92  O          9.9110   74.2630    4.3540 O.2   162  ALA162     -0.2867
     93  CB         9.2800   71.4390    5.4330 C.3   162  ALA162      0.0290
     94  N         14.9980   70.0780    3.6270 N.3   189  MET189     -0.1245
     95  CA        14.6660   68.9400    2.7750 C.3   189  MET189      0.1570
     96  C         15.8050   68.6700    1.7740 C.2   189  MET189      0.2261
     97  O         15.7170   68.9920    0.5830 O.2   189  MET189     -0.2867
     98  CB        13.3400   69.2000    2.0510 C.3   189  MET189      0.0387
     99  CG        12.2020   69.5970    3.0060 C.3   189  MET189      0.0595
    100  SD        10.5720   69.6940    2.2370 S.3   189  MET189     -0.1393
    101  CE        10.6640   71.2460    1.4260 C.3   189  MET189      0.0692
    102  N         17.0290   66.4480   -0.2520 N.3   191  TYR191     -0.1227
    103  CA        16.7700   65.2780   -1.0840 C.3   191  TYR191      0.1736
    104  C         16.0100   65.7350   -2.3240 C.2   191  TYR191      0.2595
    105  O         15.7080   66.9180   -2.4600 O.2   191  TYR191     -0.2718
    106  CB        15.9930   64.2030   -0.3010 C.3   191  TYR191      0.0548
    107  CG        14.9590   64.7230    0.6780 C.ar  191  TYR191     -0.0200
    108  CD1       13.8190   65.3820    0.2340 C.ar  191  TYR191     -0.0009
    109  CD2       15.1150   64.5350    2.0490 C.ar  191  TYR191     -0.0009
    110  CE1       12.8520   65.8390    1.1230 C.ar  191  TYR191      0.0417
    111  CE2       14.1560   64.9900    2.9480 C.ar  191  TYR191      0.0417
    112  CZ        13.0230   65.6390    2.4720 C.ar  191  TYR191      0.1957
    113  OH        12.0520   66.0660    3.3400 O.3   191  TYR191     -0.2866
    114  N         15.7130   64.8020   -3.2220 N.am  192  ASP192     -0.1974
    115  CA        15.0130   65.1230   -4.4590 C.3   192  ASP192      0.1709
    116  C         15.9210   65.9790   -5.3260 C.2   192  ASP192      0.2293
    117  O         15.4490   66.7020   -6.2040 O.2   192  ASP192     -0.2864
    118  CB        13.7320   65.9220   -4.1930 C.3   192  ASP192      0.1436
    119  CG        12.6980   65.1370   -3.4300 C.2   192  ASP192      0.3671
    120  OD1       12.5840   63.9120   -3.6550 O.co2 192  ASP192     -0.2456
    121  OD2       11.9810   65.7530   -2.6170 O.co2 192  ASP192     -0.2456
    122  N         13.1960   56.9150    1.3200 N.3   246  TYR246     -0.1241
    123  CA        12.7490   56.5240   -0.0330 C.3   246  TYR246      0.1605
    124  C         13.8670   56.8860   -0.9910 C.2   246  TYR246      0.2264
    125  O         14.7200   57.7020   -0.6540 O.2   246  TYR246     -0.2867
    126  CB        11.4750   57.2820   -0.4690 C.3   246  TYR246      0.0534
    127  CG        11.6560   58.7880   -0.6280 C.ar  246  TYR246     -0.0201
    128  CD1       11.5450   59.6480    0.4680 C.ar  246  TYR246     -0.0009
    129  CD2       11.9760   59.3400   -1.8770 C.ar  246  TYR246     -0.0009
    130  CE1       11.7490   60.9970    0.3280 C.ar  246  TYR246      0.0417
    131  CE2       12.1830   60.6860   -2.0280 C.ar  246  TYR246      0.0417
    132  CZ        12.0700   61.5130   -0.9350 C.ar  246  TYR246      0.1957
    133  OH        12.2770   62.8690   -1.1110 O.3   246  TYR246     -0.2866
    134  N         14.8180   57.4510   -5.4780 N.3   248  ARG248     -0.1245
    135  CA        14.1860   57.7580   -6.7610 C.3   248  ARG248      0.1563
    136  C         14.7070   56.8880   -7.8960 C.2   248  ARG248      0.2260
    137  O         15.9050   56.7720   -8.1200 O.2   248  ARG248     -0.2867
    138  CB        14.3640   59.2260   -7.0880 C.3   248  ARG248      0.0307
    139  CG        13.7060   60.0980   -6.0650 C.3   248  ARG248      0.0489
    140  CD        13.4180   61.5000   -6.5650 C.3   248  ARG248      0.2205
    141  NE        12.4840   62.1590   -5.6520 N.pl3 248  ARG248     -0.0865
    142  CZ        11.1600   62.0660   -5.7330 C.cat 248  ARG248      0.5346
    143  NH1       10.6030   61.3570   -6.7090 N.pl3 248  ARG248      0.1354
    144  NH2       10.3950   62.6300   -4.8010 N.pl3 248  ARG248      0.1354
    145  N         16.3080   65.0610   10.3210 N.3   335  MET335     -0.1245
    146  CA        14.8960   65.0870   10.0080 C.3   335  MET335      0.1570
    147  C         14.7260   63.9280    9.0450 C.2   335  MET335      0.2261
    148  O         15.6120   63.6350    8.2440 O.2   335  MET335     -0.2867
    149  CB        14.5030   66.4090    9.3490 C.3   335  MET335      0.0387
    150  CG        13.0340   66.4990    8.8920 C.3   335  MET335      0.0595
    151  SD        12.7330   65.8250    7.2200 S.3   335  MET335     -0.1393
    152  CE        13.2710   67.2210    6.2860 C.3   335  MET335      0.0692
    153  N         11.9830   61.7880    6.3760 N.3   337  TRP337     -0.1241
    154  CA        10.7640   61.6550    5.6100 C.3   337  TRP337      0.1605
    155  C         10.8300   60.2690    4.9850 C.2   337  TRP337      0.2264
    156  O         11.6350   60.0640    4.0800 O.2   337  TRP337     -0.2867
    157  CB        10.7060   62.7330    4.5080 C.3   337  TRP337      0.0550
    158  CG         9.4400   62.6560    3.7220 C.ar  337  TRP337      0.0003
    159  CD1        9.1710   61.8270    2.6630 C.ar  337  TRP337      0.0946
    160  CD2        8.2120   63.3070    4.0400 C.ar  337  TRP337      0.0152
    161  NE1        7.8440   61.9080    2.3150 N.ar  337  TRP337     -0.2442
    162  CE2        7.2290   62.8140    3.1420 C.ar  337  TRP337      0.0810
    163  CE3        7.8400   64.2670    4.9980 C.ar  337  TRP337      0.0012
    164  CZ2        5.8980   63.2500    3.1760 C.ar  337  TRP337      0.0191
    165  CZ3        6.5300   64.7000    5.0250 C.ar  337  TRP337      0.0001
    166  CH2        5.5690   64.1890    4.1170 C.ar  337  TRP337      0.0015
@<TRIPOS>BOND
     1   137   136    2
     2   136   135    1
     3    53    55   ar
     4    53    51   ar
     5   138   135    1
     6   138   139    1
     7    55    54   ar
     8   135   134    1
     9   143   142    1
    10    50    51   ar
    11    50    48   ar
    12   140   139    1
    13   140   141    1
    14    51    49   ar
    15   117   116    2
    16    62    61    2
    17   142   141    2
    18   142   144    1
    19    54    52   ar
    20    48    47   ar
    21   116   115    1
    22    49    52   ar
    23    49    47   ar
    24    61    63   am
    25    61    60    1
    26   115   118    1
    27   115   114    1
    28    47    46    1
    29   118   119    1
    30    45    44    2
    31    60    57    1
    32    57    58    1
    33    57    56    1
    34   120   119   ar
    35    83    82    2
    36    59    58    2
    37   119   121   ar
    38   114   104   am
    39    44    56   am
    40    44    43    1
    41    46    43    1
    42    82    81    1
    43   105   104    2
    44    43    42    1
    45   104   103    1
    46   131   129   ar
    47   131   132   ar
    48   129   127   ar
    49    84    81    1
    50    84    85    1
    51    81    80    1
    52    87    86   ar
    53   133   132    1
    54   103   106    1
    55   103   102    1
    56   124   125    2
    57   124   123    1
    58   132   130   ar
    59    42    40   am
    60    41    40    2
    61   127   126    1
    62   127   128   ar
    63   126   123    1
    64   106   107    1
    65    86    85    1
    66    86    88   ar
    67    40    39    1
    68   123   122    1
    69   108   107   ar
    70   108   110   ar
    71   130   128   ar
    72    97    96    2
    73   107   109   ar
    74   110   112   ar
    75    21    19   ar
    76    21    22   ar
    77    39    38    1
    78    19    18   ar
    79   101   100    1
    80    22    24   ar
    81    22    20   ar
    82    96    95    1
    83    24    26   ar
    84    18    20   ar
    85    18    17    1
    86   109   111   ar
    87    98    95    1
    88    98    99    1
    89   100    99    1
    90   161   159   ar
    91   161   162   ar
    92    20    23   ar
    93    17    14    1
    94   112   111   ar
    95   112   113    1
    96    26    25   ar
    97   159   158   ar
    98    75    74    2
    99    16    15    2
   100    95    94    1
   101    78    77   ar
   102    23    25   ar
   103    36    34   ar
   104    36    37   ar
   105   162   164   ar
   106   162   160   ar
   107   164   166   ar
   108    79    77   ar
   109    74    73    1
   110    34    32   ar
   111    77    76    1
   112    15    14    1
   113    14    13    1
   114    37    35   ar
   115   158   160   ar
   116   158   157    1
   117   160   163   ar
   118   156   155    2
   119   166   165   ar
   120    92    91    2
   121   157   154    1
   122    32    31    1
   123    32    33   ar
   124    73    76    1
   125    73    72    1
   126    35    33   ar
   127    91    90    1
   128   155   154    1
   129    31    28    1
   130   163   165   ar
   131    93    90    1
   132   154   153    1
   133    90    89    1
   134   152   151    1
   135    28    27    1
   136    28    29    1
   137    30    29    2
   138   151   150    1
   139   148   147    2
   140     5     6    1
   141     5     2    1
   142    10     8   ar
   143    10    11   ar
   144     8     6   ar
   145    11    12    1
   146    11     9   ar
   147     6     7   ar
   148     9     7   ar
   149   150   149    1
   150     4     3    2
   151   147   146    1
   152    67    66    2
   153    71    69   ar
   154   149   146    1
   155     3     2    1
   156    66    65    1
   157     2     1    1
   158    70    69   ar
   159    69    68    1
   160   146   145    1
   161    68    65    1
   162    65    64    1
