@<TRIPOS>MOLECULE
tmp/1hkjA01.pdb
 117 116 0 0 0
SMALL
GASTEIGER

@<TRIPOS>ATOM
      1  N         -1.7090   58.9800    4.8550 N.3    10  TRP10      -0.1241
      2  CA        -2.2310   58.3320    3.6520 C.3    10  TRP10       0.1605
      3  C         -1.5700   56.9850    3.5630 C.2    10  TRP10       0.2264
      4  O         -1.9550   56.1490    2.7610 O.2    10  TRP10      -0.2867
      5  CB        -1.9750   59.1650    2.3750 C.3    10  TRP10       0.0550
      6  CG        -0.5400   59.5040    2.0330 C.ar   10  TRP10       0.0003
      7  CD1        0.3470   58.7330    1.3140 C.ar   10  TRP10       0.0946
      8  CD2        0.1580   60.7240    2.3400 C.ar   10  TRP10       0.0152
      9  NE1        1.5410   59.4000    1.1520 N.ar   10  TRP10      -0.2442
     10  CE2        1.4570   60.6200    1.7720 C.ar   10  TRP10       0.0810
     11  CE3       -0.1860   61.8950    3.0350 C.ar   10  TRP10       0.0012
     12  CZ2        2.4070   61.6450    1.8800 C.ar   10  TRP10       0.0191
     13  CZ3        0.7570   62.9130    3.1400 C.ar   10  TRP10       0.0001
     14  CH2        2.0390   62.7790    2.5650 C.ar   10  TRP10       0.0015
     15  N         -0.6650   65.2290    6.5650 N.3    37  PHE37      -0.1241
     16  CA        -0.6750   66.6920    6.4490 C.3    37  PHE37       0.1605
     17  C         -2.0450   67.2310    6.8610 C.2    37  PHE37       0.2264
     18  O         -3.0560   66.5240    6.8400 O.2    37  PHE37      -0.2867
     19  CB        -0.4710   67.1370    4.9870 C.3    37  PHE37       0.0534
     20  CG         0.9530   67.2620    4.5620 C.ar   37  PHE37      -0.0203
     21  CD1        1.8040   68.1850    5.1770 C.ar   37  PHE37      -0.0042
     22  CD2        1.4480   66.4750    3.5200 C.ar   37  PHE37      -0.0042
     23  CE1        3.1410   68.3220    4.7570 C.ar   37  PHE37      -0.0003
     24  CE2        2.7630   66.6010    3.0920 C.ar   37  PHE37      -0.0003
     25  CZ         3.6200   67.5250    3.7090 C.ar   37  PHE37      -0.0000
     26  N          0.2760   71.9890    4.6170 N.3    76  GLY76      -0.1210
     27  CA         0.8690   72.1240    3.2970 C.3    76  GLY76       0.1956
     28  C          1.2070   70.8600    2.5200 C.2    76  GLY76       0.2612
     29  O          0.4020   69.9030    2.3900 O.2    76  GLY76      -0.2717
     30  N          2.4140   70.8740    1.9670 N.am   77  GLY77      -0.1942
     31  CA         2.8700   69.7360    1.1990 C.3    77  GLY77       0.2014
     32  C          3.0570   70.0520   -0.2630 C.2    77  GLY77       0.2639
     33  O          2.4770   70.9900   -0.8000 O.2    77  GLY77      -0.2714
     34  N          3.8810   69.2590   -0.9210 N.am   78  TRP78      -0.1959
     35  CA         4.1220   69.4780   -2.3300 C.3    78  TRP78       0.1771
     36  C          2.8140   69.6360   -3.1230 C.2    78  TRP78       0.2619
     37  O          2.6490   70.6150   -3.8650 O.2    78  TRP78      -0.2715
     38  CB         4.9560   68.3330   -2.9030 C.3    78  TRP78       0.0590
     39  CG         5.1580   68.4630   -4.3640 C.ar   78  TRP78       0.0006
     40  CD1        4.6130   67.6800   -5.3480 C.ar   78  TRP78       0.0946
     41  CD2        5.9120   69.4780   -5.0290 C.ar   78  TRP78       0.0152
     42  NE1        4.9820   68.1530   -6.5860 N.ar   78  TRP78      -0.2442
     43  CE2        5.7810   69.2550   -6.4180 C.ar   78  TRP78       0.0810
     44  CE3        6.6860   70.5580   -4.5870 C.ar   78  TRP78       0.0012
     45  CZ2        6.4000   70.0750   -7.3670 C.ar   78  TRP78       0.0191
     46  CZ3        7.2960   71.3690   -5.5250 C.ar   78  TRP78       0.0001
     47  CH2        7.1510   71.1250   -6.9010 C.ar   78  TRP78       0.0015
     48  N          1.8880   68.6940   -2.9600 N.am   79  ASN79      -0.1972
     49  CA         0.6200   68.7410   -3.6840 C.3    79  ASN79       0.1688
     50  C         -0.4650   69.6260   -3.1130 C.2    79  ASN79       0.2292
     51  O         -1.6290   69.4830   -3.4750 O.2    79  ASN79      -0.2864
     52  CB         0.0530   67.3480   -3.8190 C.3    79  ASN79       0.1181
     53  CG         0.7270   66.5830   -4.8880 C.2    79  ASN79       0.2629
     54  OD1        0.7510   67.0180   -6.0450 O.2    79  ASN79      -0.2716
     55  ND2        1.3010   65.4360   -4.5310 N.am   79  ASN79      -0.0877
     56  N         13.1960   56.9150    1.3200 N.3   246  TYR246     -0.1241
     57  CA        12.7490   56.5240   -0.0330 C.3   246  TYR246      0.1605
     58  C         13.8670   56.8860   -0.9910 C.2   246  TYR246      0.2264
     59  O         14.7200   57.7020   -0.6540 O.2   246  TYR246     -0.2867
     60  CB        11.4750   57.2820   -0.4690 C.3   246  TYR246      0.0534
     61  CG        11.6560   58.7880   -0.6280 C.ar  246  TYR246     -0.0201
     62  CD1       11.5450   59.6480    0.4680 C.ar  246  TYR246     -0.0009
     63  CD2       11.9760   59.3400   -1.8770 C.ar  246  TYR246     -0.0009
     64  CE1       11.7490   60.9970    0.3280 C.ar  246  TYR246      0.0417
     65  CE2       12.1830   60.6860   -2.0280 C.ar  246  TYR246      0.0417
     66  CZ        12.0700   61.5130   -0.9350 C.ar  246  TYR246      0.1957
     67  OH        12.2770   62.8690   -1.1110 O.3   246  TYR246     -0.2866
     68  N         14.8180   57.4510   -5.4780 N.3   248  ARG248     -0.1245
     69  CA        14.1860   57.7580   -6.7610 C.3   248  ARG248      0.1563
     70  C         14.7070   56.8880   -7.8960 C.2   248  ARG248      0.2260
     71  O         15.9050   56.7720   -8.1200 O.2   248  ARG248     -0.2867
     72  CB        14.3640   59.2260   -7.0880 C.3   248  ARG248      0.0307
     73  CG        13.7060   60.0980   -6.0650 C.3   248  ARG248      0.0489
     74  CD        13.4180   61.5000   -6.5650 C.3   248  ARG248      0.2205
     75  NE        12.4840   62.1590   -5.6520 N.pl3 248  ARG248     -0.0865
     76  CZ        11.1600   62.0660   -5.7330 C.cat 248  ARG248      0.5346
     77  NH1       10.6030   61.3570   -6.7090 N.pl3 248  ARG248      0.1354
     78  NH2       10.3950   62.6300   -4.8010 N.pl3 248  ARG248      0.1354
     79  N          3.8230   54.5810   -7.2260 N.3   276  GLU276     -0.1245
     80  CA         4.0350   55.9130   -7.7720 C.3   276  GLU276      0.1567
     81  C          5.4020   55.8630   -8.4430 C.2   276  GLU276      0.2260
     82  O          6.4510   55.9280   -7.7750 O.2   276  GLU276     -0.2867
     83  CB         4.0220   56.9760   -6.6800 C.3   276  GLU276      0.0388
     84  CG         3.8990   58.3890   -7.2150 C.3   276  GLU276      0.1160
     85  CD         4.5360   59.4230   -6.2840 C.2   276  GLU276      0.3649
     86  OE1        4.2180   59.4610   -5.0720 O.co2 276  GLU276     -0.2457
     87  OE2        5.3700   60.2140   -6.7640 O.co2 276  GLU276     -0.2457
     88  N          9.7380   56.7460   -7.6230 N.3   279  MET279     -0.1245
     89  CA        10.0950   56.7240   -6.2130 C.3   279  MET279      0.1570
     90  C          9.8460   55.3180   -5.7140 C.2   279  MET279      0.2261
     91  O          9.0640   54.5580   -6.3120 O.2   279  MET279     -0.2867
     92  CB         9.2810   57.7410   -5.3870 C.3   279  MET279      0.0387
     93  CG         7.7890   57.4270   -5.1440 C.3   279  MET279      0.0595
     94  SD         7.4590   56.1930   -3.8380 S.3   279  MET279     -0.1393
     95  CE         7.8970   57.1320   -2.3560 C.3   279  MET279      0.0692
     96  N         11.9830   61.7880    6.3760 N.3   337  TRP337     -0.1241
     97  CA        10.7640   61.6550    5.6100 C.3   337  TRP337      0.1605
     98  C         10.8300   60.2690    4.9850 C.2   337  TRP337      0.2264
     99  O         11.6350   60.0640    4.0800 O.2   337  TRP337     -0.2867
    100  CB        10.7060   62.7330    4.5080 C.3   337  TRP337      0.0550
    101  CG         9.4400   62.6560    3.7220 C.ar  337  TRP337      0.0003
    102  CD1        9.1710   61.8270    2.6630 C.ar  337  TRP337      0.0946
    103  CD2        8.2120   63.3070    4.0400 C.ar  337  TRP337      0.0152
    104  NE1        7.8440   61.9080    2.3150 N.ar  337  TRP337     -0.2442
    105  CE2        7.2290   62.8140    3.1420 C.ar  337  TRP337      0.0810
    106  CE3        7.8400   64.2670    4.9980 C.ar  337  TRP337      0.0012
    107  CZ2        5.8980   63.2500    3.1760 C.ar  337  TRP337      0.0191
    108  CZ3        6.5300   64.7000    5.0250 C.ar  337  TRP337      0.0001
    109  CH2        5.5690   64.1890    4.1170 C.ar  337  TRP337      0.0015
    110  N          7.9680   54.9050    5.2110 N.3   341  LEU341     -0.1245
    111  CA         8.6650   54.1930    4.1350 C.3   341  LEU341      0.1561
    112  C          9.9190   53.4270    4.5510 C.2   341  LEU341      0.2260
    113  O         10.5470   52.7840    3.7200 O.2   341  LEU341     -0.2867
    114  CB         9.0300   55.1970    3.0200 C.3   341  LEU341      0.0270
    115  CG         7.9380   56.1830    2.5470 C.3   341  LEU341      0.0019
    116  CD1        8.5590   57.4090    1.9950 C.3   341  LEU341      0.0001
    117  CD2        7.0220   55.5340    1.5180 C.3   341  LEU341      0.0001
@<TRIPOS>BOND
     1    81    82    2
     2    81    80    1
     3    71    70    2
     4    70    69    1
     5    80    79    1
     6    80    83    1
     7    88    89    1
     8    45    47   ar
     9    45    43   ar
    10    84    83    1
    11    84    85    1
    12    72    69    1
    13    72    73    1
    14    47    46   ar
    15    87    85   ar
    16    69    68    1
    17    77    76    1
    18    42    43   ar
    19    42    40   ar
    20    74    73    1
    21    74    75    1
    22    43    41   ar
    23    91    90    2
    24    85    86   ar
    25    89    90    1
    26    89    92    1
    27    54    53    2
    28    76    75    2
    29    76    78    1
    30    46    44   ar
    31    92    93    1
    32    40    39   ar
    33    93    94    1
    34    41    44   ar
    35    41    39   ar
    36    53    55   am
    37    53    52    1
    38    39    38    1
    39    37    36    2
    40    94    95    1
    41    52    49    1
    42    49    50    1
    43    49    48    1
    44    51    50    2
    45    36    48   am
    46    36    35    1
    47    38    35    1
    48    35    34    1
    49    65    63   ar
    50    65    66   ar
    51    63    61   ar
    52    67    66    1
    53    58    59    2
    54    58    57    1
    55    66    64   ar
    56    34    32   am
    57    33    32    2
    58    61    60    1
    59    61    62   ar
    60    60    57    1
    61    32    31    1
    62    57    56    1
    63    64    62   ar
    64     9     7   ar
    65     9    10   ar
    66    31    30    1
    67     7     6   ar
    68   117   115    1
    69    10    12   ar
    70    10     8   ar
    71    12    14   ar
    72    30    28   am
    73   116   115    1
    74     6     8   ar
    75     6     5    1
    76   104   102   ar
    77   104   105   ar
    78     8    11   ar
    79     5     2    1
    80    29    28    2
    81    28    27    1
    82   115   114    1
    83    14    13   ar
    84   102   101   ar
    85     4     3    2
    86   114   111    1
    87    11    13   ar
    88    24    22   ar
    89    24    25   ar
    90   105   107   ar
    91   105   103   ar
    92   107   109   ar
    93    27    26    1
    94    22    20   ar
    95     3     2    1
    96     2     1    1
    97    25    23   ar
    98   113   112    2
    99   101   103   ar
   100   101   100    1
   101   103   106   ar
   102    99    98    2
   103   109   108   ar
   104   111   112    1
   105   111   110    1
   106   100    97    1
   107    20    19    1
   108    20    21   ar
   109    23    21   ar
   110    98    97    1
   111    19    16    1
   112   106   108   ar
   113    97    96    1
   114    16    15    1
   115    16    17    1
   116    18    17    2
