@<TRIPOS>MOLECULE
tmp/1hkkA03.pdb
 124 124 0 0 0
SMALL
GASTEIGER

@<TRIPOS>ATOM
      1  N          3.6640   70.3270   -1.6300 N.3    78  TRP78      -0.1241
      2  CA         3.8000   70.5280   -3.0570 C.3    78  TRP78       0.1605
      3  C          2.4670   70.6120   -3.7900 C.2    78  TRP78       0.2264
      4  O          2.2330   71.5540   -4.5520 O.2    78  TRP78      -0.2867
      5  CB         4.6520   69.3980   -3.6460 C.3    78  TRP78       0.0550
      6  CG         4.7030   69.3770   -5.1360 C.ar   78  TRP78       0.0003
      7  CD1        4.0420   68.5190   -5.9670 C.ar   78  TRP78       0.0946
      8  CD2        5.4840   70.2310   -5.9780 C.ar   78  TRP78       0.0152
      9  NE1        4.3690   68.7780   -7.2740 N.ar   78  TRP78      -0.2442
     10  CE2        5.2530   69.8250   -7.3130 C.ar   78  TRP78       0.0810
     11  CE3        6.3610   71.2990   -5.7340 C.ar   78  TRP78       0.0012
     12  CZ2        5.8700   70.4480   -8.4080 C.ar   78  TRP78       0.0191
     13  CZ3        6.9760   71.9200   -6.8210 C.ar   78  TRP78       0.0001
     14  CH2        6.7250   71.4890   -8.1440 C.ar   78  TRP78       0.0015
     15  N          5.7740   77.6520   -3.4480 N.3   120  TYR120     -0.1241
     16  CA         6.7070   78.4160   -2.6060 C.3   120  TYR120      0.1605
     17  C          6.3760   79.8940   -2.7490 C.2   120  TYR120      0.2264
     18  O          5.7940   80.3090   -3.7540 O.2   120  TYR120     -0.2867
     19  CB         8.1480   78.2620   -3.1040 C.3   120  TYR120      0.0534
     20  CG         8.6770   76.8590   -3.0410 C.ar  120  TYR120     -0.0201
     21  CD1        9.1970   76.3550   -1.8560 C.ar  120  TYR120     -0.0009
     22  CD2        8.5910   76.0100   -4.1440 C.ar  120  TYR120     -0.0009
     23  CE1        9.6110   75.0430   -1.7630 C.ar  120  TYR120      0.0417
     24  CE2        9.0050   74.6860   -4.0570 C.ar  120  TYR120      0.0417
     25  CZ         9.5090   74.2160   -2.8610 C.ar  120  TYR120      0.1957
     26  OH         9.8990   72.9140   -2.7470 O.3   120  TYR120     -0.2866
     27  N          5.9990   79.3630   -8.4480 N.3   124  GLN124     -0.1245
     28  CA         4.8380   78.4910   -8.6270 C.3   124  GLN124      0.1566
     29  C          3.5400   79.2950   -8.7010 C.2   124  GLN124      0.2260
     30  O          2.4990   78.8560   -8.2010 O.2   124  GLN124     -0.2867
     31  CB         4.7470   77.4810   -7.4770 C.3   124  GLN124      0.0367
     32  CG         5.9790   76.6130   -7.3130 C.3   124  GLN124      0.0905
     33  CD         6.2660   75.7730   -8.5370 C.2   124  GLN124      0.2608
     34  OE1        5.5210   74.8480   -8.8560 O.2   124  GLN124     -0.2717
     35  NE2        7.3470   76.0950   -9.2370 N.am  124  GLN124     -0.0878
     36  N         13.0320   75.3350    0.4120 N.3   164  PRO164     -0.2102
     37  CA        13.7050   74.7660   -0.7580 C.3   164  PRO164      0.1504
     38  C         15.2220   74.9030   -0.7600 C.2   164  PRO164      0.2576
     39  O         15.7820   75.7940   -0.1270 O.2   164  PRO164     -0.2718
     40  CB        13.0550   75.5120   -1.9150 C.3   164  PRO164      0.0282
     41  CG        12.8420   76.8750   -1.3380 C.3   164  PRO164      0.0208
     42  CD        12.2950   76.5590    0.0470 C.3   164  PRO164      0.0893
     43  N         15.8680   74.0070   -1.4940 N.am  165  ALA165     -0.1966
     44  CA        17.3130   73.9880   -1.6150 C.3   165  ALA165      0.1728
     45  C         17.7640   74.7440   -2.8700 C.2   165  ALA165      0.2616
     46  O         18.8840   75.2480   -2.9240 O.2   165  ALA165     -0.2715
     47  CB        17.7970   72.5580   -1.6650 C.3   165  ALA165      0.0334
     48  N         16.8830   74.8360   -3.8630 N.am  166  GLY166     -0.1955
     49  CA        17.2210   75.5170   -5.1050 C.3   166  GLY166      0.1869
     50  C         17.4780   77.0070   -4.9600 C.2   166  GLY166      0.2309
     51  O         16.5860   77.7600   -4.5770 O.2   166  GLY166     -0.2863
     52  N         14.8220   79.4560   -6.0420 N.3   169  TYR169     -0.1241
     53  CA        13.6210   79.5310   -5.2240 C.3   169  TYR169      0.1605
     54  C         13.8850   80.2360   -3.8940 C.2   169  TYR169      0.2264
     55  O         13.0190   80.9440   -3.3730 O.2   169  TYR169     -0.2867
     56  CB        13.0590   78.1210   -5.0220 C.3   169  TYR169      0.0534
     57  CG        12.6750   77.5150   -6.3480 C.ar  169  TYR169     -0.0201
     58  CD1       13.6270   76.8850   -7.1530 C.ar  169  TYR169     -0.0009
     59  CD2       11.3930   77.6910   -6.8620 C.ar  169  TYR169     -0.0009
     60  CE1       13.3080   76.4510   -8.4420 C.ar  169  TYR169      0.0417
     61  CE2       11.0660   77.2670   -8.1520 C.ar  169  TYR169      0.0417
     62  CZ        12.0250   76.6500   -8.9340 C.ar  169  TYR169      0.1957
     63  OH        11.7030   76.2480  -10.2140 O.3   169  TYR169     -0.2866
     64  N         14.8110   71.2090    2.6380 N.3   189  MET189     -0.1245
     65  CA        14.4810   70.0940    1.7500 C.3   189  MET189      0.1570
     66  C         15.6010   69.8830    0.7280 C.2   189  MET189      0.2261
     67  O         15.4870   70.2510   -0.4410 O.2   189  MET189     -0.2867
     68  CB        13.1450   70.3570    1.0690 C.3   189  MET189      0.0387
     69  CG        11.9960   70.5050    2.0850 C.3   189  MET189      0.0595
     70  SD        10.3850   70.6010    1.3140 S.3   189  MET189     -0.1393
     71  CE        10.3750   72.3140    0.7110 C.3   189  MET189      0.0692
     72  N         16.7770   67.6570   -1.2930 N.3   191  TYR191     -0.1227
     73  CA        16.5340   66.4970   -2.1380 C.3   191  TYR191      0.1736
     74  C         15.6940   66.9830   -3.3180 C.2   191  TYR191      0.2595
     75  O         15.3900   68.1760   -3.4040 O.2   191  TYR191     -0.2718
     76  CB        15.8480   65.3620   -1.3380 C.3   191  TYR191      0.0548
     77  CG        14.8030   65.8150   -0.3390 C.ar  191  TYR191     -0.0200
     78  CD1       13.6080   66.4020   -0.7610 C.ar  191  TYR191     -0.0009
     79  CD2       15.0020   65.6380    1.0290 C.ar  191  TYR191     -0.0009
     80  CE1       12.6370   66.7940    0.1530 C.ar  191  TYR191      0.0417
     81  CE2       14.0280   66.0370    1.9620 C.ar  191  TYR191      0.0417
     82  CZ        12.8490   66.6090    1.5070 C.ar  191  TYR191      0.1957
     83  OH        11.8810   66.9700    2.4040 O.3   191  TYR191     -0.2866
     84  N         15.3150   66.0690   -4.2090 N.am  192  ASP192     -0.1960
     85  CA        14.5930   66.4150   -5.4310 C.3   192  ASP192      0.1840
     86  C         15.5180   67.2940   -6.2960 C.2   192  ASP192      0.2622
     87  O         15.0420   68.1300   -7.0580 O.2   192  ASP192     -0.2715
     88  CB        13.2920   67.1790   -5.1520 C.3   192  ASP192      0.1450
     89  CG        12.3040   66.3770   -4.3190 C.2   192  ASP192      0.3671
     90  OD1       12.2110   65.1550   -4.5360 O.co2 192  ASP192     -0.2456
     91  OD2       11.6100   66.9840   -3.4670 O.co2 192  ASP192     -0.2456
     92  N         16.8280   67.0990   -6.1640 N.am  193  PHE193     -0.1974
     93  CA        17.8150   67.8800   -6.9400 C.3   193  PHE193      0.1639
     94  C         17.7840   67.5230   -8.4230 C.2   193  PHE193      0.2290
     95  O         17.9870   68.3790   -9.2740 O.2   193  PHE193     -0.2864
     96  CB        19.2280   67.6560   -6.3950 C.3   193  PHE193      0.0560
     97  CG        19.5180   68.4330   -5.1400 C.ar  193  PHE193     -0.0200
     98  CD1       19.6170   69.8220   -5.1790 C.ar  193  PHE193     -0.0042
     99  CD2       19.6820   67.7810   -3.9210 C.ar  193  PHE193     -0.0042
    100  CE1       19.8760   70.5500   -4.0210 C.ar  193  PHE193     -0.0003
    101  CE2       19.9420   68.4990   -2.7530 C.ar  193  PHE193     -0.0003
    102  CZ        20.0410   69.8850   -2.8020 C.ar  193  PHE193     -0.0000
    103  N         12.0170   64.4310  -14.6040 N.3   197  TRP197     -0.1241
    104  CA        11.5360   65.5310  -15.4270 C.3   197  TRP197      0.1605
    105  C         12.6800   65.9410  -16.3590 C.2   197  TRP197      0.2264
    106  O         12.5090   66.7720  -17.2470 O.2   197  TRP197     -0.2867
    107  CB        11.0860   66.7100  -14.5460 C.3   197  TRP197      0.0550
    108  CG        12.0830   67.1340  -13.4940 C.ar  197  TRP197      0.0003
    109  CD1       13.0910   68.0450  -13.6370 C.ar  197  TRP197      0.0946
    110  CD2       12.1860   66.6290  -12.1520 C.ar  197  TRP197      0.0152
    111  NE1       13.8150   68.1350  -12.4710 N.ar  197  TRP197     -0.2442
    112  CE2       13.2780   67.2770  -11.5450 C.ar  197  TRP197      0.0810
    113  CE3       11.4570   65.6920  -11.4070 C.ar  197  TRP197      0.0012
    114  CZ2       13.6610   67.0190  -10.2230 C.ar  197  TRP197      0.0191
    115  CZ3       11.8370   65.4340  -10.0940 C.ar  197  TRP197      0.0001
    116  CH2       12.9280   66.0950   -9.5180 C.ar  197  TRP197      0.0015
    117  N         23.3490   72.0770   -7.3650 N.3   220  LEU220     -0.1245
    118  CA        22.3000   71.0840   -7.1680 C.3   220  LEU220      0.1561
    119  C         22.7800   69.9110   -6.3220 C.2   220  LEU220      0.2260
    120  O         22.8130   68.7660   -6.7750 O.2   220  LEU220     -0.2867
    121  CB        21.7710   70.5820   -8.5140 C.3   220  LEU220      0.0270
    122  CG        21.1410   71.6810   -9.3800 C.3   220  LEU220      0.0019
    123  CD1       20.7540   71.1140  -10.7300 C.3   220  LEU220      0.0001
    124  CD2       19.9260   72.2730   -8.6680 C.3   220  LEU220      0.0001
@<TRIPOS>BOND
     1   106   105    2
     2   105   104    1
     3   104   103    1
     4   104   107    1
     5   107   108    1
     6   109   108   ar
     7   109   111   ar
     8   108   110   ar
     9   111   112   ar
    10   110   112   ar
    11   110   113   ar
    12   112   114   ar
    13   113   115   ar
    14   123   122    1
    15   114   116   ar
    16    63    62    1
    17   115   116   ar
    18   122   124    1
    19   122   121    1
    20    95    94    2
    21    35    33   am
    22    62    60   ar
    23    62    61   ar
    24    34    33    2
    25    29    28    1
    26    29    30    2
    27    28    27    1
    28    28    31    1
    29    33    32    1
    30   121   118    1
    31    60    58   ar
    32    94    93    1
    33    12    14   ar
    34    12    10   ar
    35    61    59   ar
    36    14    13   ar
    37    31    32    1
    38   117   118    1
    39    10     9   ar
    40    10     8   ar
    41     9     7   ar
    42   118   119    1
    43    58    57   ar
    44    87    86    2
    45    93    96    1
    46    93    92    1
    47    59    57   ar
    48    13    11   ar
    49   120   119    2
    50    96    97    1
    51    57    56    1
    52    86    92   am
    53    86    85    1
    54    52    53    1
    55     8    11   ar
    56     8     6   ar
    57     7     6   ar
    58    85    88    1
    59    85    84    1
    60    53    56    1
    61    53    54    1
    62    98    97   ar
    63    98   100   ar
    64    88    89    1
    65    97    99   ar
    66     6     5    1
    67    49    50    1
    68    49    48    1
    69    50    51    2
    70     4     3    2
    71    90    89   ar
    72    89    91   ar
    73    84    74   am
    74    22    24   ar
    75    22    20   ar
    76    24    25   ar
    77   100   102   ar
    78    99   101   ar
    79    54    55    2
    80    48    45   am
    81     3     2    1
    82    18    17    2
    83     5     2    1
    84    15    16    1
    85    75    74    2
    86    74    73    1
    87    19    20    1
    88    19    16    1
    89     2     1    1
    90    20    21   ar
    91    46    45    2
    92    45    44    1
    93    25    26    1
    94    25    23   ar
    95   102   101   ar
    96    17    16    1
    97    73    76    1
    98    73    72    1
    99    40    41    1
   100    40    37    1
   101    21    23   ar
   102    47    44    1
   103    44    43    1
   104    43    38   am
   105    41    42    1
   106    76    77    1
   107    78    77   ar
   108    78    80   ar
   109    38    37    1
   110    38    39    2
   111    37    36    1
   112    67    66    2
   113    77    79   ar
   114    42    36    1
   115    80    82   ar
   116    71    70    1
   117    66    65    1
   118    79    81   ar
   119    68    65    1
   120    68    69    1
   121    70    69    1
   122    82    81   ar
   123    82    83    1
   124    65    64    1
