@<TRIPOS>MOLECULE
tmp/1hkkA02.pdb
 125 122 0 0 0
SMALL
GASTEIGER

@<TRIPOS>ATOM
      1  N          3.6640   70.3270   -1.6300 N.3    78  TRP78      -0.1227
      2  CA         3.8000   70.5280   -3.0570 C.3    78  TRP78       0.1737
      3  C          2.4670   70.6120   -3.7900 C.2    78  TRP78       0.2595
      4  O          2.2330   71.5540   -4.5520 O.2    78  TRP78      -0.2718
      5  CB         4.6520   69.3980   -3.6460 C.3    78  TRP78       0.0564
      6  CG         4.7030   69.3770   -5.1360 C.ar   78  TRP78       0.0003
      7  CD1        4.0420   68.5190   -5.9670 C.ar   78  TRP78       0.0946
      8  CD2        5.4840   70.2310   -5.9780 C.ar   78  TRP78       0.0152
      9  NE1        4.3690   68.7780   -7.2740 N.ar   78  TRP78      -0.2442
     10  CE2        5.2530   69.8250   -7.3130 C.ar   78  TRP78       0.0810
     11  CE3        6.3610   71.2990   -5.7340 C.ar   78  TRP78       0.0012
     12  CZ2        5.8700   70.4480   -8.4080 C.ar   78  TRP78       0.0191
     13  CZ3        6.9760   71.9200   -6.8210 C.ar   78  TRP78       0.0001
     14  CH2        6.7250   71.4890   -8.1440 C.ar   78  TRP78       0.0015
     15  N          1.5870   69.6430   -3.5560 N.am   79  ASN79      -0.1974
     16  CA         0.3040   69.6430   -4.2590 C.3    79  ASN79       0.1688
     17  C         -0.6950   70.6890   -3.8160 C.2    79  ASN79       0.2292
     18  O         -1.6760   70.9280   -4.5000 O.2    79  ASN79      -0.2864
     19  CB        -0.3350   68.2610   -4.1840 C.3    79  ASN79       0.1181
     20  CG         0.3510   67.2810   -5.1020 C.2    79  ASN79       0.2629
     21  OD1        0.8560   67.6730   -6.1580 O.2    79  ASN79      -0.2716
     22  ND2        0.3740   66.0040   -4.7180 N.am   79  ASN79      -0.0877
     23  N          4.8590   76.0270   -0.7900 N.3   119  GLU119     -0.1231
     24  CA         5.7730   75.7370   -1.8890 C.3   119  GLU119      0.1699
     25  C          5.3200   76.4220   -3.1900 C.2   119  GLU119      0.2592
     26  O          4.5480   75.8450   -3.9560 O.2   119  GLU119     -0.2718
     27  CB         5.8820   74.2080   -2.0850 C.3   119  GLU119      0.0402
     28  CG         6.2770   73.4580   -0.7880 C.3   119  GLU119      0.1161
     29  CD         6.7870   72.0280   -1.0080 C.2   119  GLU119      0.3649
     30  OE1        6.8140   71.5540   -2.1610 O.co2 119  GLU119     -0.2457
     31  OE2        7.1780   71.3710   -0.0100 O.co2 119  GLU119     -0.2457
     32  N          5.7740   77.6520   -3.4480 N.am  120  TYR120     -0.1976
     33  CA         6.7070   78.4160   -2.6060 C.3   120  TYR120      0.1639
     34  C          6.3760   79.8940   -2.7490 C.2   120  TYR120      0.2290
     35  O          5.7940   80.3090   -3.7540 O.2   120  TYR120     -0.2864
     36  CB         8.1480   78.2620   -3.1040 C.3   120  TYR120      0.0560
     37  CG         8.6770   76.8590   -3.0410 C.ar  120  TYR120     -0.0198
     38  CD1        9.1970   76.3550   -1.8560 C.ar  120  TYR120     -0.0009
     39  CD2        8.5910   76.0100   -4.1440 C.ar  120  TYR120     -0.0009
     40  CE1        9.6110   75.0430   -1.7630 C.ar  120  TYR120      0.0417
     41  CE2        9.0050   74.6860   -4.0570 C.ar  120  TYR120      0.0417
     42  CZ         9.5090   74.2160   -2.8610 C.ar  120  TYR120      0.1957
     43  OH         9.8990   72.9140   -2.7470 O.3   120  TYR120     -0.2866
     44  N         14.8110   71.2090    2.6380 N.3   189  MET189     -0.1245
     45  CA        14.4810   70.0940    1.7500 C.3   189  MET189      0.1570
     46  C         15.6010   69.8830    0.7280 C.2   189  MET189      0.2261
     47  O         15.4870   70.2510   -0.4410 O.2   189  MET189     -0.2867
     48  CB        13.1450   70.3570    1.0690 C.3   189  MET189      0.0387
     49  CG        11.9960   70.5050    2.0850 C.3   189  MET189      0.0595
     50  SD        10.3850   70.6010    1.3140 S.3   189  MET189     -0.1393
     51  CE        10.3750   72.3140    0.7110 C.3   189  MET189      0.0692
     52  N         16.7770   67.6570   -1.2930 N.3   191  TYR191     -0.1227
     53  CA        16.5340   66.4970   -2.1380 C.3   191  TYR191      0.1736
     54  C         15.6940   66.9830   -3.3180 C.2   191  TYR191      0.2595
     55  O         15.3900   68.1760   -3.4040 O.2   191  TYR191     -0.2718
     56  CB        15.8480   65.3620   -1.3380 C.3   191  TYR191      0.0548
     57  CG        14.8030   65.8150   -0.3390 C.ar  191  TYR191     -0.0200
     58  CD1       13.6080   66.4020   -0.7610 C.ar  191  TYR191     -0.0009
     59  CD2       15.0020   65.6380    1.0290 C.ar  191  TYR191     -0.0009
     60  CE1       12.6370   66.7940    0.1530 C.ar  191  TYR191      0.0417
     61  CE2       14.0280   66.0370    1.9620 C.ar  191  TYR191      0.0417
     62  CZ        12.8490   66.6090    1.5070 C.ar  191  TYR191      0.1957
     63  OH        11.8810   66.9700    2.4040 O.3   191  TYR191     -0.2866
     64  N         15.3150   66.0690   -4.2090 N.am  192  ASP192     -0.1974
     65  CA        14.5930   66.4150   -5.4310 C.3   192  ASP192      0.1709
     66  C         15.5180   67.2940   -6.2960 C.2   192  ASP192      0.2293
     67  O         15.0420   68.1300   -7.0580 O.2   192  ASP192     -0.2864
     68  CB        13.2920   67.1790   -5.1520 C.3   192  ASP192      0.1436
     69  CG        12.3040   66.3770   -4.3190 C.2   192  ASP192      0.3671
     70  OD1       12.2110   65.1550   -4.5360 O.co2 192  ASP192     -0.2456
     71  OD2       11.6100   66.9840   -3.4670 O.co2 192  ASP192     -0.2456
     72  N         13.0810   62.5350  -12.8720 N.3   196  SER196     -0.1202
     73  CA        12.5900   62.1050  -14.1820 C.3   196  SER196      0.2020
     74  C         12.0330   63.1920  -15.0820 C.2   196  SER196      0.2618
     75  O         11.6050   62.9030  -16.2010 O.2   196  SER196     -0.2717
     76  CB        11.5310   61.0010  -14.0240 C.3   196  SER196      0.2103
     77  OG        10.3710   61.4970  -13.3860 O.3   196  SER196     -0.2182
     78  N         12.0170   64.4310  -14.6040 N.am  197  TRP197     -0.1975
     79  CA        11.5360   65.5310  -15.4270 C.3   197  TRP197      0.1640
     80  C         12.6800   65.9410  -16.3590 C.2   197  TRP197      0.2290
     81  O         12.5090   66.7720  -17.2470 O.2   197  TRP197     -0.2864
     82  CB        11.0860   66.7100  -14.5460 C.3   197  TRP197      0.0576
     83  CG        12.0830   67.1340  -13.4940 C.ar  197  TRP197      0.0006
     84  CD1       13.0910   68.0450  -13.6370 C.ar  197  TRP197      0.0946
     85  CD2       12.1860   66.6290  -12.1520 C.ar  197  TRP197      0.0152
     86  NE1       13.8150   68.1350  -12.4710 N.ar  197  TRP197     -0.2442
     87  CE2       13.2780   67.2770  -11.5450 C.ar  197  TRP197      0.0810
     88  CE3       11.4570   65.6920  -11.4070 C.ar  197  TRP197      0.0012
     89  CZ2       13.6610   67.0190  -10.2230 C.ar  197  TRP197      0.0191
     90  CZ3       11.8370   65.4340  -10.0940 C.ar  197  TRP197      0.0001
     91  CH2       12.9280   66.0950   -9.5180 C.ar  197  TRP197      0.0015
     92  N         14.6360   58.6340   -6.6410 N.3   248  ARG248     -0.1245
     93  CA        13.9600   59.0290   -7.8620 C.3   248  ARG248      0.1563
     94  C         14.4700   58.1040   -8.9740 C.2   248  ARG248      0.2260
     95  O         15.6710   57.8700   -9.1210 O.2   248  ARG248     -0.2867
     96  CB        14.1650   60.5190   -8.1530 C.3   248  ARG248      0.0307
     97  CG        13.3310   61.3610   -7.1900 C.3   248  ARG248      0.0489
     98  CD        13.1160   62.8100   -7.6170 C.3   248  ARG248      0.2205
     99  NE        12.1230   63.4590   -6.7600 N.pl3 248  ARG248     -0.0865
    100  CZ        10.8000   63.3520   -6.8970 C.cat 248  ARG248      0.5346
    101  NH1       10.2730   62.6220   -7.8720 N.pl3 248  ARG248      0.1354
    102  NH2        9.9990   63.9640   -6.0260 N.pl3 248  ARG248      0.1354
    103  N         10.1790   58.6200  -16.6080 N.3   267  SER267     -0.1217
    104  CA        10.1650   58.0900  -15.2430 C.3   267  SER267      0.1889
    105  C         10.3900   56.5920  -15.2130 C.2   267  SER267      0.2288
    106  O         10.1130   55.8930  -16.1860 O.2   267  SER267     -0.2866
    107  CB         8.8090   58.3450  -14.5750 C.3   267  SER267      0.2089
    108  OG         8.5470   59.7220  -14.4620 O.3   267  SER267     -0.2183
    109  N          3.7270   56.0640   -7.8570 N.3   276  GLU276     -0.1245
    110  CA         3.9780   57.3900   -8.4100 C.3   276  GLU276      0.1567
    111  C          5.2360   57.2170   -9.2580 C.2   276  GLU276      0.2260
    112  O          6.3510   57.2140   -8.7310 O.2   276  GLU276     -0.2867
    113  CB         4.2210   58.4650   -7.3380 C.3   276  GLU276      0.0388
    114  CG         4.4350   59.8720   -7.9570 C.3   276  GLU276      0.1160
    115  CD         4.7190   60.9690   -6.9320 C.2   276  GLU276      0.3649
    116  OE1        3.9540   61.1020   -5.9560 O.co2 276  GLU276     -0.2457
    117  OE2        5.7000   61.7180   -7.1000 O.co2 276  GLU276     -0.2457
    118  N          9.3720   57.9790   -8.5730 N.3   279  MET279     -0.1245
    119  CA         9.9020   57.8560   -7.2200 C.3   279  MET279      0.1570
    120  C          9.6480   56.4480   -6.7270 C.2   279  MET279      0.2261
    121  O          8.7870   55.7370   -7.2670 O.2   279  MET279     -0.2867
    122  CB         9.2820   58.8940   -6.2470 C.3   279  MET279      0.0387
    123  CG         7.7890   58.7650   -5.9680 C.3   279  MET279      0.0595
    124  SD         7.3840   57.4200   -4.7960 S.3   279  MET279     -0.1393
    125  CE         7.8660   58.1540   -3.2520 C.3   279  MET279      0.0692
@<TRIPOS>BOND
     1    81    80    2
     2   103   104    1
     3    80    79    1
     4    75    74    2
     5   106   105    2
     6    79    78    1
     7    79    82    1
     8   104   105    1
     9   104   107    1
    10    74    78   am
    11    74    73    1
    12   107   108    1
    13    82    83    1
    14    73    76    1
    15    73    72    1
    16    76    77    1
    17    84    83   ar
    18    84    86   ar
    19    83    85   ar
    20    86    87   ar
    21    85    87   ar
    22    85    88   ar
    23    87    89   ar
    24    88    90   ar
    25    89    91   ar
    26    90    91   ar
    27   111   112    2
    28   111   110    1
    29    95    94    2
    30    94    93    1
    31   118   119    1
    32   110   109    1
    33   110   113    1
    34    12    14   ar
    35    12    10   ar
    36    96    93    1
    37    96    97    1
    38    14    13   ar
    39   114   113    1
    40   114   115    1
    41   101   100    1
    42    93    92    1
    43    98    97    1
    44    98    99    1
    45    10     9   ar
    46    10     8   ar
    47     9     7   ar
    48   121   120    2
    49   119   120    1
    50   119   122    1
    51   117   115   ar
    52    67    66    2
    53   115   116   ar
    54   100    99    2
    55   100   102    1
    56    13    11   ar
    57    66    65    1
    58   122   123    1
    59    21    20    2
    60     8    11   ar
    61     8     6   ar
    62   123   124    1
    63     7     6   ar
    64    65    68    1
    65    65    64    1
    66    68    69    1
    67     6     5    1
    68    20    22   am
    69    20    19    1
    70   124   125    1
    71     4     3    2
    72    70    69   ar
    73    18    17    2
    74    69    71   ar
    75    16    19    1
    76    16    17    1
    77    16    15    1
    78    64    54   am
    79    39    41   ar
    80    39    37   ar
    81    41    42   ar
    82    26    25    2
    83     3    15   am
    84     3     2    1
    85    35    34    2
    86     5     2    1
    87    32    25   am
    88    32    33    1
    89    55    54    2
    90    54    53    1
    91    25    24    1
    92    36    37    1
    93    36    33    1
    94     2     1    1
    95    37    38   ar
    96    42    43    1
    97    42    40   ar
    98    34    33    1
    99    30    29   ar
   100    53    56    1
   101    53    52    1
   102    27    24    1
   103    27    28    1
   104    24    23    1
   105    38    40   ar
   106    56    57    1
   107    29    28    1
   108    29    31   ar
   109    58    57   ar
   110    58    60   ar
   111    47    46    2
   112    57    59   ar
   113    60    62   ar
   114    51    50    1
   115    46    45    1
   116    59    61   ar
   117    48    45    1
   118    48    49    1
   119    50    49    1
   120    62    61   ar
   121    62    63    1
   122    45    44    1
