@<TRIPOS>MOLECULE
tmp/1hkvA01.pdb
 148 142 0 0 0
SMALL
GASTEIGER

@<TRIPOS>ATOM
      1  N         66.6120   39.4520  221.1550 N.3    69  ALA69      -0.1245
      2  CA        66.3090   38.5180  222.1640 C.3    69  ALA69       0.1562
      3  C         65.8830   37.2500  221.5150 C.2    69  ALA69       0.2260
      4  O         64.7550   37.1300  221.0300 O.2    69  ALA69      -0.2867
      5  CB        65.1780   39.0540  223.0160 C.3    69  ALA69       0.0290
      6  N         64.8690   34.4550  222.4260 N.3    71  LYS71      -0.1245
      7  CA        63.7570   33.6620  222.9350 C.3    71  LYS71       0.1561
      8  C         62.5100   33.8810  222.0640 C.2    71  LYS71       0.2260
      9  O         61.6670   32.9990  221.9670 O.2    71  LYS71      -0.2867
     10  CB        63.4750   34.0340  224.3680 C.3    71  LYS71       0.0271
     11  CG        63.3410   35.5830  224.5770 C.3    71  LYS71       0.0035
     12  CD        63.4000   35.9680  226.0470 C.3    71  LYS71       0.0206
     13  CE        62.0370   36.0360  226.6810 C.3    71  LYS71       0.1093
     14  NZ        61.9410   37.3850  227.2930 N.3    71  LYS71      -0.1314
     15  N         70.9530   37.8980  222.2380 N.3    90  ASP90      -0.1239
     16  CA        70.8320   37.6490  223.6610 C.3    90  ASP90       0.1674
     17  C         70.4120   36.2280  223.7680 C.2    90  ASP90       0.2266
     18  O         69.3540   35.8550  223.2850 O.2    90  ASP90      -0.2867
     19  CB        69.7520   38.5210  224.2980 C.3    90  ASP90       0.1410
     20  CG        70.2520   39.8910  224.7970 C.2    90  ASP90       0.3668
     21  OD1       71.2580   40.4310  224.3270 O.co2  90  ASP90      -0.2456
     22  OD2       69.6140   40.5150  225.6600 O.co2  90  ASP90      -0.2456
     23  N         72.0020   35.6670  229.2720 N.3   113  HIS113     -0.1241
     24  CA        71.0270   36.0480  230.3340 C.3   113  HIS113      0.1621
     25  C         70.5750   34.8240  231.0910 C.2   113  HIS113      0.2264
     26  O         70.7380   33.6600  230.6240 O.2   113  HIS113     -0.2867
     27  CB        69.7960   36.6570  229.6930 C.3   113  HIS113      0.0745
     28  CG        69.9010   38.1200  229.4050 C.ar  113  HIS113      0.0817
     29  ND1       69.8690   39.0760  230.3920 N.ar  113  HIS113     -0.2268
     30  CD2       69.9930   38.7880  228.2380 C.ar  113  HIS113      0.1154
     31  CE1       69.9590   40.2800  229.8380 C.ar  113  HIS113      0.1986
     32  NE2       70.0320   40.1330  228.5280 N.ar  113  HIS113     -0.2212
     33  N         71.9040   42.7500  236.7100 N.3   160  ARG160     -0.1245
     34  CA        70.5130   42.9050  236.4100 C.3   160  ARG160      0.1563
     35  C         69.8460   43.4980  237.6120 C.2   160  ARG160      0.2260
     36  O         70.0280   43.0100  238.7000 O.2   160  ARG160     -0.2867
     37  CB        69.8660   41.5460  236.0490 C.3   160  ARG160      0.0307
     38  CG        68.3230   41.6210  235.7280 C.3   160  ARG160      0.0489
     39  CD        67.8540   40.5900  234.7980 C.3   160  ARG160      0.2205
     40  NE        66.4690   40.7600  234.4030 N.pl3 160  ARG160     -0.0865
     41  CZ        65.8580   39.9700  233.5360 C.cat 160  ARG160      0.5346
     42  NH1       66.5130   38.9970  232.9700 N.pl3 160  ARG160      0.1354
     43  NH2       64.5990   40.1500  233.2260 N.pl3 160  ARG160      0.1354
     44  N         63.9800   37.5420  238.8980 N.3   182  PHE182     -0.1241
     45  CA        65.1080   38.1630  238.2530 C.3   182  PHE182      0.1605
     46  C         65.6600   39.2970  239.0830 C.2   182  PHE182      0.2264
     47  O         64.9060   40.0050  239.8200 O.2   182  PHE182     -0.2867
     48  CB        64.7400   38.7270  236.8260 C.3   182  PHE182      0.0534
     49  CG        64.5960   37.6770  235.7860 C.ar  182  PHE182     -0.0203
     50  CD1       65.7090   37.0620  235.2530 C.ar  182  PHE182     -0.0042
     51  CD2       63.3270   37.2790  235.3270 C.ar  182  PHE182     -0.0042
     52  CE1       65.5790   36.0540  234.2740 C.ar  182  PHE182     -0.0003
     53  CE2       63.2010   36.3010  234.4060 C.ar  182  PHE182     -0.0003
     54  CZ        64.3460   35.6820  233.8630 C.ar  182  PHE182     -0.0000
     55  N         71.6220   46.5430  233.9440 N.3   210  HIS210     -0.1241
     56  CA        70.5560   46.0650  233.1040 C.3   210  HIS210      0.1621
     57  C         69.2670   46.1080  233.8620 C.2   210  HIS210      0.2264
     58  O         69.2210   45.7780  235.0690 O.2   210  HIS210     -0.2867
     59  CB        70.8540   44.6240  232.5620 C.3   210  HIS210      0.0745
     60  CG        69.6590   43.9450  231.9620 C.ar  210  HIS210      0.0817
     61  ND1       68.7610   43.2090  232.7120 N.ar  210  HIS210     -0.2268
     62  CD2       69.2030   43.9070  230.6920 C.ar  210  HIS210      0.1154
     63  CE1       67.8190   42.7410  231.9310 C.ar  210  HIS210      0.1986
     64  NE2       68.0580   43.1580  230.6990 N.ar  210  HIS210     -0.2212
     65  N         64.9850   45.0420  232.8370 N.3   212  HIS212     -0.1241
     66  CA        63.9110   44.6460  231.9220 C.3   212  HIS212      0.1621
     67  C         62.5920   44.7620  232.6120 C.2   212  HIS212      0.2264
     68  O         62.3820   44.0980  233.5990 O.2   212  HIS212     -0.2867
     69  CB        64.1090   43.1950  231.4340 C.3   212  HIS212      0.0745
     70  CG        63.0540   42.7410  230.4520 C.ar  212  HIS212      0.0817
     71  ND1       62.8570   43.3660  229.2340 N.ar  212  HIS212     -0.2268
     72  CD2       62.1440   41.7310  230.5150 C.ar  212  HIS212      0.1154
     73  CE1       61.8890   42.7490  228.5800 C.ar  212  HIS212      0.1986
     74  NE2       61.4380   41.7560  229.3380 N.ar  212  HIS212     -0.2212
     75  N         59.0080   44.8850  231.1540 N.3   214  GLY214     -0.1210
     76  CA        57.7080   44.4340  230.6590 C.3   214  GLY214      0.1956
     77  C         57.6180   43.9280  229.2230 C.2   214  GLY214      0.2612
     78  O         58.5660   43.5240  228.6120 O.2   214  GLY214     -0.2717
     79  N         56.4190   43.8970  228.7070 N.am  215  SER215     -0.1952
     80  CA        56.2440   43.6020  227.3370 C.3   215  SER215      0.1924
     81  C         55.0600   44.3540  226.7830 C.2   215  SER215      0.2314
     82  O         54.2520   44.7920  227.5080 O.2   215  SER215     -0.2863
     83  CB        56.0530   42.1570  227.1930 C.3   215  SER215      0.2116
     84  OG        54.8130   41.8640  227.7110 O.3   215  SER215     -0.2180
     85  N         64.1180   44.8360  226.8810 N.3   256  GLY256     -0.1210
     86  CA        63.1700   44.8360  225.8100 C.3   256  GLY256      0.1956
     87  C         61.7700   45.2840  226.2240 C.2   256  GLY256      0.2612
     88  O         61.6180   46.1160  227.1370 O.2   256  GLY256     -0.2717
     89  N         60.7640   44.7260  225.5210 N.am  257  GLY257     -0.1942
     90  CA        59.3610   45.0070  225.7600 C.3   257  GLY257      0.2014
     91  C         58.7460   46.0570  224.8360 C.2   257  GLY257      0.2638
     92  O         57.5960   46.4390  224.9790 O.2   257  GLY257     -0.2714
     93  N         59.5180   46.5160  223.8870 N.am  258  LEU258     -0.1977
     94  CA        59.0140   47.3720  222.8450 C.3   258  LEU258      0.1596
     95  C         57.9640   46.7090  222.0590 C.2   258  LEU258      0.2287
     96  O         57.8940   45.5020  221.7690 O.2   258  LEU258     -0.2864
     97  CB        59.9740   48.1860  222.2180 C.3   258  LEU258      0.0297
     98  CG        61.4350   47.8600  222.5300 C.3   258  LEU258      0.0022
     99  CD1       62.3490   48.5080  221.5100 C.3   258  LEU258      0.0001
    100  CD2       61.7780   48.3390  223.9390 C.3   258  LEU258      0.0001
    101  N         67.0070   45.5980  224.1040 N.3   299  GLU299     -0.1231
    102  CA        67.0230   44.2110  223.8100 C.3   299  GLU299      0.1684
    103  C         65.7370   43.6920  223.1580 C.2   299  GLU299      0.2434
    104  O         65.1480   42.7440  223.6480 O.2   299  GLU299     -0.2733
    105  CB        67.2960   43.4340  225.0990 C.3   299  GLU299      0.0402
    106  CG        68.6950   43.6960  225.6650 C.3   299  GLU299      0.1161
    107  CD        68.8980   43.1450  227.0290 C.2   299  GLU299      0.3649
    108  OE1       70.0590   43.1560  227.5080 O.co2 299  GLU299     -0.2457
    109  OE2       67.9040   42.6760  227.6190 O.co2 299  GLU299     -0.2457
    110  N         65.3300   44.2630  222.0380 N.am  300  PRO300     -0.2718
    111  CA        64.0860   43.8740  221.3840 C.3   300  PRO300      0.1535
    112  C         64.0040   42.4200  220.9940 C.2   300  PRO300      0.2599
    113  O         64.9660   41.8570  220.4620 O.2   300  PRO300     -0.2715
    114  CB        64.0710   44.7390  220.1120 C.3   300  PRO300      0.0310
    115  CG        65.4110   45.1340  219.9230 C.3   300  PRO300      0.0237
    116  CD        66.0120   45.3040  221.2900 C.3   300  PRO300      0.0939
    117  N         62.8760   41.8140  221.2480 N.am  301  GLY301     -0.1941
    118  CA        62.6250   40.4980  220.7490 C.3   301  GLY301      0.2014
    119  C         61.5170   40.5210  219.7130 C.2   301  GLY301      0.2639
    120  O         61.7290   40.3580  218.4960 O.2   301  GLY301     -0.2714
    121  N         60.3450   40.7280  220.2320 N.am  302  ARG302     -0.1963
    122  CA        59.1230   40.7660  219.5150 C.3   302  ARG302      0.1729
    123  C         59.0740   41.8240  218.4560 C.2   302  ARG302      0.2616
    124  O         58.4890   41.6010  217.4340 O.2   302  ARG302     -0.2715
    125  CB        58.0230   41.0610  220.5420 C.3   302  ARG302      0.0348
    126  CG        56.6250   41.1720  220.0230 C.3   302  ARG302      0.0492
    127  CD        55.6130   41.6180  221.1430 C.3   302  ARG302      0.2205
    128  NE        55.1060   40.5080  221.9810 N.pl3 302  ARG302     -0.0865
    129  CZ        55.5670   40.1950  223.1650 C.cat 302  ARG302      0.5346
    130  NH1       55.0480   39.2120  223.8230 N.pl3 302  ARG302      0.1354
    131  NH2       56.5430   40.8580  223.6900 N.pl3 302  ARG302      0.1354
    132  N         59.6590   43.0050  218.7170 N.am  303  ALA303     -0.1977
    133  CA        59.4580   44.1590  217.8340 C.3   303  ALA303      0.1597
    134  C         60.3120   44.0220  216.5940 C.2   303  ALA303      0.2287
    135  O         60.2470   44.8410  215.6940 O.2   303  ALA303     -0.2864
    136  CB        59.7780   45.3460  218.5050 C.3   303  ALA303      0.0319
    137  N         57.3260   34.3560  219.7150 N.3   404  TYR404     -0.1241
    138  CA        56.8570   33.6090  220.8580 C.3   404  TYR404      0.1605
    139  C         55.9730   32.4630  220.5190 C.2   404  TYR404      0.2264
    140  O         55.8570   31.5280  221.3210 O.2   404  TYR404     -0.2867
    141  CB        56.2920   34.5440  221.9990 C.3   404  TYR404      0.0534
    142  CG        57.4110   35.4120  222.5900 C.ar  404  TYR404     -0.0201
    143  CD1       58.4340   34.8580  223.3810 C.ar  404  TYR404     -0.0009
    144  CD2       57.5000   36.7440  222.2600 C.ar  404  TYR404     -0.0009
    145  CE1       59.5360   35.6740  223.8410 C.ar  404  TYR404      0.0417
    146  CE2       58.5750   37.5320  222.7120 C.ar  404  TYR404      0.0417
    147  CZ        59.5670   36.9790  223.4930 C.ar  404  TYR404      0.1957
    148  OH        60.5170   37.7670  223.9150 O.3   404  TYR404     -0.2866
@<TRIPOS>BOND
     1   135   134    2
     2   134   133    1
     3   124   123    2
     4   133   136    1
     5   133   132    1
     6   123   132   am
     7   123   122    1
     8   120   119    2
     9   122   121    1
    10   122   125    1
    11   119   121   am
    12   119   118    1
    13   137   138    1
    14   115   114    1
    15   115   116    1
    16   126   125    1
    17   126   127    1
    18   114   111    1
    19   113   112    2
    20   139   138    1
    21   139   140    2
    22   118   117    1
    23   138   141    1
    24   112   117   am
    25   112   111    1
    26     4     3    2
    27   127   128    1
    28     1     2    1
    29   116   110    1
    30   111   110    1
    31    99    98    1
    32     3     2    1
    33    96    95    2
    34     9     8    2
    35   128   129    2
    36   141   142    1
    37   110   103   am
    38    95    94    1
    39     8     7    1
    40     2     5    1
    41    97    98    1
    42    97    94    1
    43    15    16    1
    44   144   142   ar
    45   144   146   ar
    46     6     7    1
    47    98   100    1
    48   142   143   ar
    49   146   147   ar
    50    94    93    1
    51     7    10    1
    52   103   104    2
    53   103   102    1
    54   129   131    1
    55   129   130    1
    56    18    17    2
    57   143   145   ar
    58   147   145   ar
    59   147   148    1
    60    16    17    1
    61    16    19    1
    62   102   101    1
    63   102   105    1
    64    93    91   am
    65    19    20    1
    66    21    20   ar
    67    10    11    1
    68    11    12    1
    69    20    22   ar
    70    91    92    2
    71    91    90    1
    72   105   106    1
    73    89    90    1
    74    89    87   am
    75   106   107    1
    76    86    87    1
    77    86    85    1
    78    12    13    1
    79    87    88    2
    80    13    14    1
    81    81    80    1
    82    81    82    2
    83   107   108   ar
    84   107   109   ar
    85    83    80    1
    86    83    84    1
    87    80    79    1
    88    30    32   ar
    89    30    28   ar
    90    32    31   ar
    91    73    71   ar
    92    73    74   ar
    93    78    77    2
    94    79    77   am
    95    77    76    1
    96    71    70   ar
    97    23    24    1
    98    74    72   ar
    99    28    27    1
   100    28    29   ar
   101    27    24    1
   102    31    29   ar
   103    24    25    1
   104    70    72   ar
   105    70    69    1
   106    26    25    2
   107    76    75    1
   108    62    64   ar
   109    62    60   ar
   110    64    63   ar
   111    69    66    1
   112    66    67    1
   113    66    65    1
   114    63    61   ar
   115    60    59    1
   116    60    61   ar
   117    59    56    1
   118    67    68    2
   119    42    41    1
   120    56    57    1
   121    56    55    1
   122    43    41    1
   123    41    40    2
   124    57    58    2
   125    54    52   ar
   126    54    53   ar
   127    52    50   ar
   128    40    39    1
   129    53    51   ar
   130    39    38    1
   131    50    49   ar
   132    51    49   ar
   133    38    37    1
   134    49    48    1
   135    37    34    1
   136    34    33    1
   137    34    35    1
   138    48    45    1
   139    35    36    2
   140    45    44    1
   141    45    46    1
   142    46    47    2
