@<TRIPOS>MOLECULE
tmp/1hkvA00.pdb
 94 90 0 0 0
SMALL
GASTEIGER

@<TRIPOS>ATOM
      1  N         64.8690   34.4550  222.4260 N.3    71  LYS71      -0.1245
      2  CA        63.7570   33.6620  222.9350 C.3    71  LYS71       0.1561
      3  C         62.5100   33.8810  222.0640 C.2    71  LYS71       0.2260
      4  O         61.6670   32.9990  221.9670 O.2    71  LYS71      -0.2867
      5  CB        63.4750   34.0340  224.3680 C.3    71  LYS71       0.0271
      6  CG        63.3410   35.5830  224.5770 C.3    71  LYS71       0.0035
      7  CD        63.4000   35.9680  226.0470 C.3    71  LYS71       0.0206
      8  CE        62.0370   36.0360  226.6810 C.3    71  LYS71       0.1093
      9  NZ        61.9410   37.3850  227.2930 N.3    71  LYS71      -0.1314
     10  N         53.1080   47.7450  230.6790 N.3   168  HIS168     -0.1241
     11  CA        52.3100   47.0170  229.6490 C.3   168  HIS168      0.1621
     12  C         51.4000   47.9490  228.9650 C.2   168  HIS168      0.2264
     13  O         50.6890   48.6790  229.5780 O.2   168  HIS168     -0.2867
     14  CB        51.4500   45.8520  230.2160 C.3   168  HIS168      0.0745
     15  CG        52.2400   44.7510  230.8770 C.ar  168  HIS168      0.0817
     16  ND1       53.1300   43.9440  230.1820 N.ar  168  HIS168     -0.2268
     17  CD2       52.2500   44.3000  232.1630 C.ar  168  HIS168      0.1154
     18  CE1       53.6740   43.0610  231.0160 C.ar  168  HIS168      0.1986
     19  NE2       53.1530   43.2510  232.2210 N.ar  168  HIS168     -0.2212
     20  N         64.9850   45.0420  232.8370 N.3   212  HIS212     -0.1241
     21  CA        63.9110   44.6460  231.9220 C.3   212  HIS212      0.1621
     22  C         62.5920   44.7620  232.6120 C.2   212  HIS212      0.2264
     23  O         62.3820   44.0980  233.5990 O.2   212  HIS212     -0.2867
     24  CB        64.1090   43.1950  231.4340 C.3   212  HIS212      0.0745
     25  CG        63.0540   42.7410  230.4520 C.ar  212  HIS212      0.0817
     26  ND1       62.8570   43.3660  229.2340 N.ar  212  HIS212     -0.2268
     27  CD2       62.1440   41.7310  230.5150 C.ar  212  HIS212      0.1154
     28  CE1       61.8890   42.7490  228.5800 C.ar  212  HIS212      0.1986
     29  NE2       61.4380   41.7560  229.3380 N.ar  212  HIS212     -0.2212
     30  N         59.0080   44.8850  231.1540 N.3   214  GLY214     -0.1210
     31  CA        57.7080   44.4340  230.6590 C.3   214  GLY214      0.1956
     32  C         57.6180   43.9280  229.2230 C.2   214  GLY214      0.2613
     33  O         58.5660   43.5240  228.6120 O.2   214  GLY214     -0.2717
     34  N         56.4190   43.8970  228.7070 N.am  215  SER215     -0.1938
     35  CA        56.2440   43.6020  227.3370 C.3   215  SER215      0.2055
     36  C         55.0600   44.3540  226.7830 C.2   215  SER215      0.2642
     37  O         54.2520   44.7920  227.5080 O.2   215  SER215     -0.2714
     38  CB        56.0530   42.1570  227.1930 C.3   215  SER215      0.2130
     39  OG        54.8130   41.8640  227.7110 O.3   215  SER215     -0.2179
     40  N         55.0090   44.4940  225.4620 N.am  216  GLN216     -0.1976
     41  CA        53.9160   45.1530  224.7440 C.3   216  GLN216      0.1601
     42  C         53.7170   46.5970  225.2230 C.2   216  GLN216      0.2287
     43  O         52.6450   47.1150  225.2350 O.2   216  GLN216     -0.2864
     44  CB        52.6140   44.3150  224.8490 C.3   216  GLN216      0.0394
     45  CG        52.3890   43.3330  223.6480 C.3   216  GLN216      0.0908
     46  CD        52.4440   44.0630  222.2620 C.2   216  GLN216      0.2608
     47  OE1       53.5160   44.2800  221.7100 O.2   216  GLN216     -0.2717
     48  NE2       51.2910   44.4070  221.7300 N.am  216  GLN216     -0.0878
     49  N         60.3450   40.7280  220.2320 N.3   302  ARG302     -0.1245
     50  CA        59.1230   40.7660  219.5150 C.3   302  ARG302      0.1563
     51  C         59.0740   41.8240  218.4560 C.2   302  ARG302      0.2260
     52  O         58.4890   41.6010  217.4340 O.2   302  ARG302     -0.2867
     53  CB        58.0230   41.0610  220.5420 C.3   302  ARG302      0.0307
     54  CG        56.6250   41.1720  220.0230 C.3   302  ARG302      0.0489
     55  CD        55.6130   41.6180  221.1430 C.3   302  ARG302      0.2205
     56  NE        55.1060   40.5080  221.9810 N.pl3 302  ARG302     -0.0865
     57  CZ        55.5670   40.1950  223.1650 C.cat 302  ARG302      0.5346
     58  NH1       55.0480   39.2120  223.8230 N.pl3 302  ARG302      0.1354
     59  NH2       56.5430   40.8580  223.6900 N.pl3 302  ARG302      0.1354
     60  N         49.5130   31.4280  222.8820 N.3   343  ARG343     -0.1245
     61  CA        49.6310   32.7400  223.4850 C.3   343  ARG343      0.1563
     62  C         48.2990   33.1920  223.9680 C.2   343  ARG343      0.2260
     63  O         48.1960   33.8310  224.9930 O.2   343  ARG343     -0.2867
     64  CB        50.2030   33.7630  222.5040 C.3   343  ARG343      0.0307
     65  CG        51.7530   33.7140  222.4060 C.3   343  ARG343      0.0489
     66  CD        52.3500   34.9330  221.8490 C.3   343  ARG343      0.2205
     67  NE        52.2060   36.0060  222.7680 N.pl3 343  ARG343     -0.0865
     68  CZ        51.4990   37.0670  222.5620 C.cat 343  ARG343      0.5346
     69  NH1       50.8240   37.2420  221.4220 N.pl3 343  ARG343      0.1354
     70  NH2       51.4720   37.9970  223.4920 N.pl3 343  ARG343      0.1354
     71  N         48.4870   33.7950  227.8130 N.3   347  TYR347     -0.1241
     72  CA        48.5970   35.1910  228.2080 C.3   347  TYR347      0.1605
     73  C         47.2940   36.0170  227.9360 C.2   347  TYR347      0.2264
     74  O         47.2820   37.2090  228.1480 O.2   347  TYR347     -0.2867
     75  CB        49.7080   35.8440  227.4180 C.3   347  TYR347      0.0534
     76  CG        51.0460   35.1480  227.5190 C.ar  347  TYR347     -0.0201
     77  CD1       51.7080   34.6970  226.3530 C.ar  347  TYR347     -0.0009
     78  CD2       51.6530   34.9160  228.7740 C.ar  347  TYR347     -0.0009
     79  CE1       52.8880   34.1050  226.4250 C.ar  347  TYR347      0.0417
     80  CE2       52.8340   34.3310  228.8530 C.ar  347  TYR347      0.0417
     81  CZ        53.4740   33.9170  227.6670 C.ar  347  TYR347      0.1957
     82  OH        54.6630   33.3140  227.7230 O.3   347  TYR347     -0.2866
     83  N         57.3260   34.3560  219.7150 N.3   404  TYR404     -0.1241
     84  CA        56.8570   33.6090  220.8580 C.3   404  TYR404      0.1605
     85  C         55.9730   32.4630  220.5190 C.2   404  TYR404      0.2264
     86  O         55.8570   31.5280  221.3210 O.2   404  TYR404     -0.2867
     87  CB        56.2920   34.5440  221.9990 C.3   404  TYR404      0.0534
     88  CG        57.4110   35.4120  222.5900 C.ar  404  TYR404     -0.0201
     89  CD1       58.4340   34.8580  223.3810 C.ar  404  TYR404     -0.0009
     90  CD2       57.5000   36.7440  222.2600 C.ar  404  TYR404     -0.0009
     91  CE1       59.5360   35.6740  223.8410 C.ar  404  TYR404      0.0417
     92  CE2       58.5750   37.5320  222.7120 C.ar  404  TYR404      0.0417
     93  CZ        59.5670   36.9790  223.4930 C.ar  404  TYR404      0.1957
     94  OH        60.5170   37.7670  223.9150 O.3   404  TYR404     -0.2866
@<TRIPOS>BOND
     1    52    51    2
     2    51    50    1
     3    50    49    1
     4    50    53    1
     5    83    84    1
     6    54    53    1
     7    54    55    1
     8    85    84    1
     9    85    86    2
    10    84    87    1
    11    55    56    1
    12    69    68    1
    13    47    46    2
    14    48    46   am
    15    66    65    1
    16    66    67    1
    17     4     3    2
    18    56    57    2
    19    87    88    1
    20     3     2    1
    21    90    88   ar
    22    90    92   ar
    23    46    45    1
    24    65    64    1
    25     1     2    1
    26    64    61    1
    27    68    67    2
    28    68    70    1
    29    88    89   ar
    30    92    93   ar
    31    60    61    1
    32     2     5    1
    33    57    59    1
    34    57    58    1
    35    89    91   ar
    36    61    62    1
    37    93    91   ar
    38    93    94    1
    39    45    44    1
    40    62    63    2
    41     5     6    1
    42     6     7    1
    43    41    44    1
    44    41    42    1
    45    41    40    1
    46    42    43    2
    47    40    36   am
    48     7     8    1
    49    77    79   ar
    50    77    76   ar
    51    79    81   ar
    52     8     9    1
    53    36    35    1
    54    36    37    2
    55    38    35    1
    56    38    39    1
    57    35    34    1
    58    75    76    1
    59    75    72    1
    60    76    78   ar
    61    81    82    1
    62    81    80   ar
    63    71    72    1
    64    73    74    2
    65    73    72    1
    66    28    26   ar
    67    28    29   ar
    68    33    32    2
    69    34    32   am
    70    78    80   ar
    71    12    13    2
    72    12    11    1
    73    32    31    1
    74    26    25   ar
    75    29    27   ar
    76    11    14    1
    77    11    10    1
    78    16    15   ar
    79    16    18   ar
    80    14    15    1
    81    25    27   ar
    82    25    24    1
    83    31    30    1
    84    15    17   ar
    85    18    19   ar
    86    24    21    1
    87    21    22    1
    88    21    20    1
    89    17    19   ar
    90    22    23    2
