@<TRIPOS>MOLECULE
tmp/1hl3A00.pdb
 132 128 0 0 0
SMALL
GASTEIGER

@<TRIPOS>ATOM
      1  N        -14.7880   14.8120    2.3300 N.3     4  LEU4       -0.1245
      2  CA       -15.2060   16.1600    2.6910 C.3     4  LEU4        0.1561
      3  C        -14.5930   16.6310    4.0050 C.2     4  LEU4        0.2260
      4  O        -14.5140   15.8780    4.9770 O.2     4  LEU4       -0.2867
      5  CB       -16.7350   16.2280    2.7770 C.3     4  LEU4        0.0270
      6  CG       -17.3840   17.5930    3.0350 C.3     4  LEU4        0.0019
      7  CD1      -18.8430   17.5410    2.6220 C.3     4  LEU4        0.0001
      8  CD2      -17.2550   17.9820    4.5010 C.3     4  LEU4        0.0001
      9  N        -14.6980   20.1040    6.6410 N.3     6  ALA6       -0.1245
     10  CA       -15.4070   21.3420    6.9380 C.3     6  ALA6        0.1562
     11  C        -14.7540   22.1900    8.0220 C.2     6  ALA6        0.2260
     12  O        -14.2940   21.6750    9.0400 O.2     6  ALA6       -0.2867
     13  CB       -16.8440   21.0260    7.3280 C.3     6  ALA6        0.0290
     14  N        -11.2950   29.7960    3.8600 N.3    13  CYS13      -0.1235
     15  CA       -10.4230   28.6720    3.5330 C.3    13  CYS13       0.1677
     16  C         -9.3920   29.0490    2.4750 C.2    13  CYS13       0.2270
     17  O         -8.7970   28.1770    1.8450 O.2    13  CYS13      -0.2867
     18  CB       -11.2540   27.4880    3.0250 C.3    13  CYS13       0.0956
     19  SG       -12.5050   26.8730    4.1810 S.3    13  CYS13      -0.0801
     20  N         -7.1660   25.9270    1.3980 N.3    17  MET17      -0.1245
     21  CA        -7.5680   25.4920    0.0620 C.3    17  MET17       0.1570
     22  C         -6.4570   25.0490   -0.8950 C.2    17  MET17       0.2261
     23  O         -6.5200   23.9550   -1.4530 O.2    17  MET17      -0.2867
     24  CB        -8.4040   26.5880   -0.6060 C.3    17  MET17       0.0387
     25  CG        -9.0660   26.1560   -1.9000 C.3    17  MET17       0.0595
     26  SD        -9.9640   24.6130   -1.6730 S.3    17  MET17      -0.1393
     27  CE       -11.2400   25.1370   -0.5580 C.3    17  MET17       0.0692
     28  N        -13.0400   18.2460   -0.4800 N.3    25  THR25      -0.1203
     29  CA       -14.0720   19.2150   -0.8170 C.3    25  THR25       0.1994
     30  C        -14.2310   20.1430    0.3830 C.2    25  THR25       0.2618
     31  O        -15.1180   19.9550    1.2160 O.2    25  THR25      -0.2717
     32  CB       -15.4210   18.5200   -1.1020 C.3    25  THR25       0.1784
     33  OG1      -15.2460   17.5420   -2.1330 O.3    25  THR25      -0.2211
     34  CG2      -16.4580   19.5350   -1.5530 C.3    25  THR25       0.0376
     35  N        -13.3600   21.1420    0.4710 N.am   26  VAL26      -0.1965
     36  CA       -13.3960   22.0860    1.5790 C.3    26  VAL26       0.1727
     37  C        -14.6070   23.0120    1.5240 C.2    26  VAL26       0.2616
     38  O        -14.9270   23.5790    0.4790 O.2    26  VAL26      -0.2715
     39  CB       -12.1210   22.9550    1.6100 C.3    26  VAL26       0.0290
     40  CG1      -12.0760   23.7670    2.8960 C.3    26  VAL26       0.0023
     41  CG2      -10.8870   22.0780    1.4830 C.3    26  VAL26       0.0023
     42  N        -15.2730   23.1570    2.6650 N.am   27  ALA27      -0.1963
     43  CA       -16.4420   24.0180    2.7850 C.3    27  ALA27       0.1728
     44  C        -16.4340   24.6160    4.1850 C.2    27  ALA27       0.2616
     45  O        -15.6630   24.1810    5.0390 O.2    27  ALA27      -0.2715
     46  CB       -17.7120   23.2130    2.5640 C.3    27  ALA27       0.0334
     47  N        -17.2810   25.6100    4.4250 N.am   28  PHE28      -0.1960
     48  CA       -17.3280   26.2290    5.7410 C.3    28  PHE28       0.1771
     49  C        -18.7360   26.3110    6.3150 C.2    28  PHE28       0.2620
     50  O        -19.7080   26.4950    5.5840 O.2    28  PHE28      -0.2715
     51  CB       -16.6850   27.6210    5.6930 C.3    28  PHE28       0.0574
     52  CG       -17.3500   28.5780    4.7420 C.ar   28  PHE28      -0.0200
     53  CD1      -18.5650   29.1750    5.0640 C.ar   28  PHE28      -0.0042
     54  CD2      -16.7420   28.9050    3.5340 C.ar   28  PHE28      -0.0042
     55  CE1      -19.1630   30.0890    4.1980 C.ar   28  PHE28      -0.0003
     56  CE2      -17.3310   29.8150    2.6610 C.ar   28  PHE28      -0.0003
     57  CZ       -18.5440   30.4090    2.9940 C.ar   28  PHE28      -0.0000
     58  N        -18.8320   26.1600    7.6330 N.am   29  CYS29      -0.1954
     59  CA       -20.1100   26.2070    8.3320 C.3    29  CYS29       0.1843
     60  C        -20.2310   27.4800    9.1600 C.2    29  CYS29       0.2625
     61  O        -21.3210   28.0360    9.3020 O.2    29  CYS29      -0.2714
     62  CB       -20.2500   24.9940    9.2520 C.3    29  CYS29       0.0997
     63  SG       -20.0900   23.3990    8.4250 S.3    29  CYS29      -0.0797
     64  N        -19.1030   27.9350    9.6990 N.am   30  ASP30      -0.1971
     65  CA       -19.0720   29.1340   10.5300 C.3    30  ASP30       0.1709
     66  C        -20.0420   28.9380   11.6890 C.2    30  ASP30       0.2293
     67  O        -20.7340   29.8660   12.1080 O.2    30  ASP30      -0.2864
     68  CB       -19.4690   30.3650    9.7080 C.3    30  ASP30       0.1436
     69  CG       -19.3520   31.6580   10.4960 C.2    30  ASP30       0.3671
     70  OD1      -18.2470   31.9540   11.0010 O.co2  30  ASP30      -0.2456
     71  OD2      -20.3660   32.3790   10.6100 O.co2  30  ASP30      -0.2456
     72  N        -24.6180   23.1000   17.2360 N.3    35  GLN35      -0.1231
     73  CA       -25.8650   22.7490   16.5650 C.3    35  GLN35       0.1698
     74  C        -26.0970   23.5180   15.2650 C.2    35  GLN35       0.2592
     75  O        -26.9070   23.1110   14.4320 O.2    35  GLN35      -0.2718
     76  CB       -27.0470   22.9730   17.5140 C.3    35  GLN35       0.0381
     77  CG       -26.9510   22.2030   18.8260 C.3    35  GLN35       0.0905
     78  CD       -26.8540   20.6990   18.6250 C.2    35  GLN35       0.2608
     79  OE1      -25.8760   20.1940   18.0720 O.2    35  GLN35      -0.2717
     80  NE2      -27.8740   19.9760   19.0730 N.am   35  GLN35      -0.0878
     81  N        -25.3830   24.6270   15.0940 N.am   36  GLU36      -0.1966
     82  CA       -25.5180   25.4430   13.8930 C.3    36  GLU36       0.1733
     83  C        -24.8320   24.8000   12.6920 C.2    36  GLU36       0.2616
     84  O        -24.8410   25.3530   11.5930 O.2    36  GLU36      -0.2715
     85  CB       -24.9330   26.8370   14.1310 C.3    36  GLU36       0.0429
     86  CG       -25.6760   27.6560   15.1720 C.3    36  GLU36       0.1163
     87  CD       -25.0610   29.0260   15.3800 C.2    36  GLU36       0.3649
     88  OE1      -23.8970   29.0920   15.8320 O.co2  36  GLU36      -0.2457
     89  OE2      -25.7390   30.0340   15.0900 O.co2  36  GLU36      -0.2457
     90  N        -24.2340   23.6320   12.9080 N.am   37  ILE37      -0.1963
     91  CA       -23.5450   22.9200   11.8380 C.3    37  ILE37       0.1727
     92  C        -24.5460   22.3590   10.8340 C.2    37  ILE37       0.2616
     93  O        -25.6270   21.9010   11.2110 O.2    37  ILE37      -0.2715
     94  CB       -22.6970   21.7550   12.3940 C.3    37  ILE37       0.0290
     95  CG1      -21.6130   22.2980   13.3270 C.3    37  ILE37       0.0022
     96  CG2      -22.0630   20.9760   11.2510 C.3    37  ILE37       0.0023
     97  CD1      -20.7170   21.2280   13.9160 C.3    37  ILE37       0.0001
     98  N        -24.1820   22.4030    9.5570 N.am   38  HIS38      -0.1959
     99  CA       -25.0460   21.8970    8.4980 C.3    38  HIS38       0.1787
    100  C        -25.2350   20.3930    8.6660 C.2    38  HIS38       0.2620
    101  O        -24.3150   19.6840    9.0750 O.2    38  HIS38      -0.2715
    102  CB       -24.4300   22.1970    7.1300 C.3    38  HIS38       0.0785
    103  CG       -25.3920   22.0680    5.9900 C.ar   38  HIS38       0.0821
    104  ND1      -25.7320   23.1270    5.1770 N.ar   38  HIS38      -0.2267
    105  CD2      -26.0950   21.0040    5.5330 C.ar   38  HIS38       0.1154
    106  CE1      -26.6030   22.7230    4.2700 C.ar   38  HIS38       0.1986
    107  NE2      -26.8400   21.4390    4.4630 N.ar   38  HIS38      -0.2212
    108  N        -26.4340   19.9140    8.3540 N.am   39  GLU39      -0.1963
    109  CA       -26.7580   18.4970    8.4790 C.3    39  GLU39       0.1733
    110  C        -25.7690   17.6050    7.7350 C.2    39  GLU39       0.2616
    111  O        -25.0910   16.7760    8.3440 O.2    39  GLU39      -0.2715
    112  CB       -28.1740   18.2390    7.9580 C.3    39  GLU39       0.0429
    113  CG       -28.6490   16.8030    8.1160 C.3    39  GLU39       0.1163
    114  CD       -28.6650   16.3480    9.5620 C.2    39  GLU39       0.3649
    115  OE1      -29.2990   17.0290   10.3950 O.co2  39  GLU39      -0.2457
    116  OE2      -28.0450   15.3060    9.8650 O.co2  39  GLU39      -0.2457
    117  N        -25.6880   17.7800    6.4190 N.am   40  LYS40      -0.1963
    118  CA       -24.7900   16.9820    5.5900 C.3    40  LYS40       0.1728
    119  C        -23.3420   16.9850    6.0620 C.2    40  LYS40       0.2616
    120  O        -22.5890   16.0580    5.7680 O.2    40  LYS40      -0.2715
    121  CB       -24.8680   17.4490    4.1320 C.3    40  LYS40       0.0311
    122  CG       -26.1130   16.9550    3.4040 C.3    40  LYS40       0.0038
    123  CD       -26.1080   15.4350    3.2880 C.3    40  LYS40       0.0206
    124  CE       -27.4140   14.9050    2.7250 C.3    40  LYS40       0.1093
    125  NZ       -28.5500   15.1410    3.6590 N.3    40  LYS40      -0.1314
    126  N        -22.9500   18.0250    6.7890 N.am   41  VAL41      -0.1977
    127  CA       -21.5870   18.1040    7.3010 C.3    41  VAL41       0.1596
    128  C        -21.4290   17.0820    8.4210 C.2    41  VAL41       0.2287
    129  O        -20.4150   16.3900    8.5050 O.2    41  VAL41      -0.2864
    130  CB       -21.2680   19.5120    7.8500 C.3    41  VAL41       0.0276
    131  CG1      -19.8560   19.5450    8.4120 C.3    41  VAL41       0.0022
    132  CG2      -21.4200   20.5440    6.7450 C.3    41  VAL41       0.0022
@<TRIPOS>BOND
     1    33    32    1
     2    25    26    1
     3    25    24    1
     4    26    27    1
     5    34    32    1
     6    23    22    2
     7    32    29    1
     8    22    21    1
     9    29    28    1
    10    29    30    1
    11    24    21    1
    12    21    20    1
    13    30    35   am
    14    30    31    2
    15    35    36    1
    16    38    37    2
    17    41    39    1
    18    37    36    1
    19    37    42   am
    20    36    39    1
    21    39    40    1
    22    17    16    2
    23     1     2    1
    24    16    15    1
    25    46    43    1
    26     7     6    1
    27    56    57   ar
    28    56    54   ar
    29    42    43    1
    30     2     5    1
    31     2     3    1
    32   124   123    1
    33   124   125    1
    34     5     6    1
    35    43    44    1
    36    57    55   ar
    37    18    15    1
    38    18    19    1
    39     6     8    1
    40   123   122    1
    41   122   121    1
    42    15    14    1
    43    54    52   ar
    44     3     4    2
    45   121   118    1
    46    44    47   am
    47    44    45    2
    48    55    53   ar
    49   106   107   ar
    50   106   104   ar
    51    47    48    1
    52   107   105   ar
    53    52    53   ar
    54    52    51    1
    55   104   103   ar
    56   105   103   ar
    57    50    49    2
    58   118   119    1
    59   118   117    1
    60    51    48    1
    61    48    49    1
    62   120   119    2
    63   103   102    1
    64   119   126   am
    65    49    58   am
    66   117   110   am
    67     9    10    1
    68   132   130    1
    69   126   127    1
    70    10    13    1
    71    10    11    1
    72   102    99    1
    73   127   130    1
    74   127   128    1
    75    58    59    1
    76   110   111    2
    77   110   109    1
    78   130   131    1
    79   112   113    1
    80   112   109    1
    81    11    12    2
    82   113   114    1
    83    59    60    1
    84    59    62    1
    85   108   109    1
    86   108   100   am
    87   128   129    2
    88    63    62    1
    89    99   100    1
    90    99    98    1
    91   100   101    2
    92    60    61    2
    93    60    64   am
    94    98    92   am
    95   114   116   ar
    96   114   115   ar
    97    64    65    1
    98    68    69    1
    99    68    65    1
   100    69    71   ar
   101    69    70   ar
   102    65    66    1
   103    92    93    2
   104    92    91    1
   105    96    94    1
   106    84    83    2
   107    66    67    2
   108    91    94    1
   109    91    90    1
   110    94    95    1
   111    83    90   am
   112    83    82    1
   113    95    97    1
   114    82    85    1
   115    82    81    1
   116    85    86    1
   117    75    74    2
   118    89    87   ar
   119    81    74   am
   120    86    87    1
   121    74    73    1
   122    87    88   ar
   123    73    72    1
   124    73    76    1
   125    76    77    1
   126    79    78    2
   127    78    77    1
   128    78    80   am
