@<TRIPOS>MOLECULE
tmp/1hl7A00.pdb
 111 110 0 0 0
SMALL
GASTEIGER

@<TRIPOS>ATOM
      1  N        109.0920   19.7330   83.7980 N.3    31  GLY31      -0.1210
      2  CA       109.0860   18.2720   83.6620 C.3    31  GLY31       0.1956
      3  C        108.0230   17.6230   84.5250 C.2    31  GLY31       0.2611
      4  O        107.4820   18.2360   85.4370 O.2    31  GLY31      -0.2717
      5  N        107.7630   16.3430   84.2560 N.am   32  TYR32      -0.1976
      6  CA       106.8770   15.5390   85.0960 C.3    32  TYR32       0.1639
      7  C        107.5840   15.2390   86.4140 C.2    32  TYR32       0.2290
      8  O        108.7980   14.9740   86.4100 O.2    32  TYR32      -0.2864
      9  CB       106.6600   14.2230   84.3800 C.3    32  TYR32       0.0560
     10  CG       106.0250   13.1000   85.1500 C.ar   32  TYR32      -0.0198
     11  CD1      104.6700   12.8220   85.0000 C.ar   32  TYR32      -0.0009
     12  CD2      106.8020   12.2380   85.9240 C.ar   32  TYR32      -0.0009
     13  CE1      104.0850   11.7240   85.6480 C.ar   32  TYR32       0.0417
     14  CE2      106.2340   11.1490   86.5800 C.ar   32  TYR32       0.0417
     15  CZ       104.8780   10.8890   86.4130 C.ar   32  TYR32       0.1957
     16  OH       104.3390    9.7740   87.0330 O.3    32  TYR32      -0.2866
     17  N        112.3650   21.2670   79.8640 N.3    97  PHE97      -0.1227
     18  CA       113.0940   20.3300   80.7020 C.3    97  PHE97       0.1736
     19  C        112.3020   19.0230   80.7440 C.2    97  PHE97       0.2596
     20  O        111.0920   19.0460   81.0310 O.2    97  PHE97      -0.2718
     21  CB       113.2330   20.8720   82.1460 C.3    97  PHE97       0.0547
     22  CG       113.6540   19.8190   83.1330 C.ar   97  PHE97      -0.0202
     23  CD1      114.9940   19.4020   83.2060 C.ar   97  PHE97      -0.0042
     24  CD2      112.7050   19.2160   83.9640 C.ar   97  PHE97      -0.0042
     25  CE1      115.3850   18.3960   84.0990 C.ar   97  PHE97      -0.0003
     26  CE2      113.0680   18.2070   84.8550 C.ar   97  PHE97      -0.0003
     27  CZ       114.4270   17.7850   84.9290 C.ar   97  PHE97      -0.0000
     28  N        112.9690   17.8930   80.4780 N.am   98  SER98      -0.1938
     29  CA       112.3360   16.5700   80.6200 C.3    98  SER98       0.2055
     30  C        111.0370   16.5120   79.7800 C.2    98  SER98       0.2642
     31  O        111.2310   16.8140   78.4660 O.2    98  SER98      -0.2714
     32  CB       112.0790   16.3180   82.1190 C.3    98  SER98       0.2130
     33  OG       111.8320   14.9320   82.3480 O.3    98  SER98      -0.2179
     34  N        109.8290   16.2740   80.2830 N.am   99  MET99      -0.1976
     35  CA       108.6630   16.3630   79.3700 C.3    99  MET99       0.1605
     36  C        108.6290   17.6170   78.4840 C.2    99  MET99       0.2287
     37  O        108.1540   17.5440   77.3500 O.2    99  MET99      -0.2864
     38  CB       107.3340   16.3230   80.1680 C.3    99  MET99       0.0413
     39  CG       106.8970   14.9180   80.5050 C.3    99  MET99       0.0598
     40  SD       105.1850   14.8790   81.0670 S.3    99  MET99      -0.1393
     41  CE       104.3130   14.9470   79.4570 C.3    99  MET99       0.0692
     42  N        113.9290   14.2150   76.0070 N.3   125  LEU125     -0.1245
     43  CA       113.3410   12.9290   75.5750 C.3   125  LEU125      0.1561
     44  C        113.8620   12.4790   74.2120 C.2   125  LEU125      0.2260
     45  O        113.9220   11.2760   73.9360 O.2   125  LEU125     -0.2867
     46  CB       111.8270   13.1010   75.4510 C.3   125  LEU125      0.0270
     47  CG       111.0850   13.2850   76.7710 C.3   125  LEU125      0.0019
     48  CD1      109.6610   13.8010   76.4690 C.3   125  LEU125      0.0001
     49  CD2      111.0360   11.8910   77.4850 C.3   125  LEU125      0.0001
     50  N        110.0920    7.3870   92.1270 N.3   162  PHE162     -0.1241
     51  CA       110.5180    8.1830   90.9660 C.3   162  PHE162      0.1605
     52  C        111.5570    9.2310   91.3850 C.2   162  PHE162      0.2264
     53  O        112.5940    9.3810   90.7390 O.2   162  PHE162     -0.2867
     54  CB       109.2980    8.8630   90.3110 C.3   162  PHE162      0.0534
     55  CG       109.6410    9.7650   89.1660 C.ar  162  PHE162     -0.0203
     56  CD1      109.9210    9.2330   87.9020 C.ar  162  PHE162     -0.0042
     57  CD2      109.6980   11.1500   89.3500 C.ar  162  PHE162     -0.0042
     58  CE1      110.2340   10.0880   86.8220 C.ar  162  PHE162     -0.0003
     59  CE2      110.0060   12.0080   88.2830 C.ar  162  PHE162     -0.0003
     60  CZ       110.2690   11.4710   87.0160 C.ar  162  PHE162     -0.0000
     61  N        115.1410   10.2480   90.1090 N.3   166  PHE166     -0.1241
     62  CA       115.1550   11.5570   89.4510 C.3   166  PHE166      0.1605
     63  C        116.3370   12.3790   89.9310 C.2   166  PHE166      0.2264
     64  O        117.0320   13.0310   89.1300 O.2   166  PHE166     -0.2867
     65  CB       113.8200   12.2540   89.8240 C.3   166  PHE166      0.0534
     66  CG       113.5480   13.5920   89.1440 C.ar  166  PHE166     -0.0203
     67  CD1      113.7980   14.7910   89.8260 C.ar  166  PHE166     -0.0042
     68  CD2      112.8970   13.6490   87.9020 C.ar  166  PHE166     -0.0042
     69  CE1      113.4700   16.0380   89.2440 C.ar  166  PHE166     -0.0003
     70  CE2      112.5570   14.8880   87.3160 C.ar  166  PHE166     -0.0003
     71  CZ       112.8460   16.0860   87.9920 C.ar  166  PHE166     -0.0000
     72  N        105.7420   10.2270   76.6150 N.3   204  TRP204     -0.1241
     73  CA       107.2040   10.3150   76.7460 C.3   204  TRP204      0.1605
     74  C        107.8920    9.5410   75.6250 C.2   204  TRP204      0.2264
     75  O        108.9790    9.9360   75.1750 O.2   204  TRP204     -0.2867
     76  CB       107.6930    9.6770   78.0400 C.3   204  TRP204      0.0550
     77  CG       107.1880   10.2880   79.3140 C.ar  204  TRP204      0.0003
     78  CD1      106.4550   11.4300   79.4910 C.ar  204  TRP204      0.0946
     79  CD2      107.3790    9.7220   80.6060 C.ar  204  TRP204      0.0152
     80  NE1      106.1980   11.6110   80.8370 N.ar  204  TRP204     -0.2442
     81  CE2      106.7300   10.5600   81.5380 C.ar  204  TRP204      0.0810
     82  CE3      108.0230    8.5590   81.0720 C.ar  204  TRP204      0.0012
     83  CZ2      106.7250   10.2850   82.9180 C.ar  204  TRP204      0.0191
     84  CZ3      108.0270    8.2860   82.4410 C.ar  204  TRP204      0.0001
     85  CH2      107.3760    9.1510   83.3490 C.ar  204  TRP204      0.0015
     86  N        117.0160    8.6250   84.5990 N.3   232  ILE232     -0.1231
     87  CA       115.6450    8.6330   84.0800 C.3   232  ILE232      0.1692
     88  C        115.6930    8.5540   82.5530 C.2   232  ILE232      0.2591
     89  O        115.0870    7.6510   81.9540 O.2   232  ILE232     -0.2718
     90  CB       114.8910    9.9200   84.5140 C.3   232  ILE232      0.0266
     91  CG1      114.7890   10.0300   86.0460 C.3   232  ILE232      0.0019
     92  CG2      113.4810    9.9430   83.9170 C.3   232  ILE232      0.0020
     93  CD1      114.0660    8.8290   86.7410 C.3   232  ILE232      0.0001
     94  N        116.4160    9.5000   81.9440 N.am  233  LEU233     -0.1980
     95  CA       116.6080    9.5420   80.4950 C.3   233  LEU233      0.1596
     96  C        118.0870    9.3000   80.2220 C.2   233  LEU233      0.2287
     97  O        118.9030   10.2120   80.2940 O.2   233  LEU233     -0.2864
     98  CB       116.1400   10.8960   79.9390 C.3   233  LEU233      0.0297
     99  CG       114.6600   11.2030   80.2070 C.3   233  LEU233      0.0022
    100  CD1      114.2980   12.4860   79.4470 C.3   233  LEU233      0.0001
    101  CD2      113.7830   10.0540   79.7520 C.3   233  LEU233      0.0001
    102  N        118.9630   13.4210   86.5500 N.3   259  HIS259     -0.1241
    103  CA       117.8850   13.9890   85.7420 C.3   259  HIS259      0.1621
    104  C        117.3910   15.3250   86.3190 C.2   259  HIS259      0.2264
    105  O        117.1220   16.2710   85.5620 O.2   259  HIS259     -0.2867
    106  CB       116.7180   13.0090   85.6420 C.3   259  HIS259      0.0745
    107  CG       115.7430   13.3890   84.5660 C.ar  259  HIS259      0.0817
    108  ND1      116.1290   13.5160   83.2490 N.ar  259  HIS259     -0.2268
    109  CD2      114.4250   13.7030   84.6130 C.ar  259  HIS259      0.1154
    110  CE1      115.0810   13.8740   82.5210 C.ar  259  HIS259      0.1986
    111  NE2      114.0350   13.9880   83.3230 N.ar  259  HIS259     -0.2212
@<TRIPOS>BOND
     1    45    44    2
     2    44    43    1
     3    75    74    2
     4    46    43    1
     5    46    47    1
     6    43    42    1
     7    74    73    1
     8    48    47    1
     9    72    73    1
    10    73    76    1
    11    47    49    1
    12    37    36    2
    13    76    77    1
    14    31    30    2
    15    36    35    1
    16    77    78   ar
    17    77    79   ar
    18    35    38    1
    19    35    34    1
    20   100    99    1
    21    41    40    1
    22    78    80   ar
    23   101    99    1
    24    30    34   am
    25    30    29    1
    26    17    18    1
    27    98    99    1
    28    98    95    1
    29    38    39    1
    30    96    97    2
    31    96    95    1
    32    28    29    1
    33    28    19   am
    34    95    94    1
    35    39    40    1
    36    79    82   ar
    37    79    81   ar
    38    29    32    1
    39    18    19    1
    40    18    21    1
    41    19    20    2
    42    80    81   ar
    43    82    84   ar
    44    81    83   ar
    45    94    88   am
    46    89    88    2
    47    32    33    1
    48    21    22    1
    49    84    85   ar
    50   110   108   ar
    51   110   111   ar
    52    88    87    1
    53    83    85   ar
    54    22    23   ar
    55    22    24   ar
    56    23    25   ar
    57   108   107   ar
    58   111   109   ar
    59     2     1    1
    60     2     3    1
    61    92    90    1
    62    24    26   ar
    63    87    90    1
    64    87    86    1
    65    25    27   ar
    66     5     3   am
    67     5     6    1
    68     9     6    1
    69     9    10    1
    70    90    91    1
    71     3     4    2
    72   107   109   ar
    73   107   106    1
    74    26    27   ar
    75    11    10   ar
    76    11    13   ar
    77     6     7    1
    78    10    12   ar
    79   105   104    2
    80   106   103    1
    81    13    15   ar
    82   103   104    1
    83   103   102    1
    84    12    14   ar
    85    91    93    1
    86     8     7    2
    87    15    14   ar
    88    15    16    1
    89    58    60   ar
    90    58    56   ar
    91    60    59   ar
    92    70    68   ar
    93    70    71   ar
    94    56    55   ar
    95    68    66   ar
    96    71    69   ar
    97    59    57   ar
    98    64    63    2
    99    66    65    1
   100    66    67   ar
   101    55    57   ar
   102    55    54    1
   103    69    67   ar
   104    62    65    1
   105    62    63    1
   106    62    61    1
   107    54    51    1
   108    53    52    2
   109    51    52    1
   110    51    50    1
