@<TRIPOS>MOLECULE
tmp/1hl9B00.pdb
 156 155 0 0 0
SMALL
GASTEIGER

@<TRIPOS>ATOM
      1  N          7.8130   33.2330   21.2540 N.3    26  PHE26      -0.1241
      2  CA         6.8970   32.1210   20.9260 C.3    26  PHE26       0.1605
      3  C          6.3310   32.4130   19.5380 C.2    26  PHE26       0.2264
      4  O          6.1040   33.5830   19.1840 O.2    26  PHE26      -0.2867
      5  CB         5.7050   32.1410   21.9200 C.3    26  PHE26       0.0534
      6  CG         5.3660   30.8280   22.6100 C.ar   26  PHE26      -0.0203
      7  CD1        5.8990   29.6000   22.2390 C.ar   26  PHE26      -0.0042
      8  CD2        4.4420   30.8540   23.6450 C.ar   26  PHE26      -0.0042
      9  CE1        5.5420   28.4470   22.9160 C.ar   26  PHE26      -0.0003
     10  CE2        4.0850   29.7060   24.3200 C.ar   26  PHE26      -0.0003
     11  CZ         4.6280   28.5040   23.9540 C.ar   26  PHE26      -0.0000
     12  N          3.0910   31.0200   17.2770 N.3    28  HIS28      -0.1241
     13  CA         1.9200   30.1890   17.0580 C.3    28  HIS28       0.1621
     14  C          1.4940   30.3320   15.6130 C.2    28  HIS28       0.2264
     15  O          0.8970   31.3240   15.2230 O.2    28  HIS28      -0.2867
     16  CB         0.7880   30.5630   18.0300 C.3    28  HIS28       0.0745
     17  CG         0.8840   29.8500   19.3400 C.ar   28  HIS28       0.0817
     18  ND1        1.9120   30.0730   20.2290 N.ar   28  HIS28      -0.2268
     19  CD2        0.1050   28.8900   19.8970 C.ar   28  HIS28       0.1154
     20  CE1        1.7640   29.2810   21.2780 C.ar   28  HIS28       0.1986
     21  NE2        0.6730   28.5530   21.1020 N.ar   28  HIS28      -0.2212
     22  N         -8.7770   32.7070   21.7070 N.3    49  TYR49      -0.1241
     23  CA        -7.5770   32.0800   21.1830 C.3    49  TYR49       0.1605
     24  C         -7.9170   31.4840   19.8150 C.2    49  TYR49       0.2264
     25  O         -8.6320   30.4830   19.7280 O.2    49  TYR49      -0.2867
     26  CB        -7.0860   30.9780   22.1380 C.3    49  TYR49       0.0534
     27  CG        -6.4140   31.4510   23.4270 C.ar   49  TYR49      -0.0201
     28  CD1       -5.7550   30.5350   24.2660 C.ar   49  TYR49      -0.0009
     29  CD2       -6.4390   32.7930   23.8180 C.ar   49  TYR49      -0.0009
     30  CE1       -5.1380   30.9480   25.4500 C.ar   49  TYR49       0.0417
     31  CE2       -5.8280   33.2150   24.9940 C.ar   49  TYR49       0.0417
     32  CZ        -5.1840   32.2940   25.8040 C.ar   49  TYR49       0.1957
     33  OH        -4.5840   32.7250   26.9640 O.3    49  TYR49      -0.2866
     34  N         -5.9840   29.9590   17.6460 N.3    51  GLU51      -0.1231
     35  CA        -5.4060   28.6190   17.4870 C.3    51  GLU51       0.1699
     36  C         -6.4210   27.5410   17.7470 C.2    51  GLU51       0.2592
     37  O         -6.2710   26.4280   17.2430 O.2    51  GLU51      -0.2718
     38  CB        -4.2440   28.3140   18.4480 C.3    51  GLU51       0.0402
     39  CG        -3.4670   29.4760   18.9960 C.3    51  GLU51       0.1161
     40  CD        -4.1590   30.1720   20.1490 C.2    51  GLU51       0.3649
     41  OE1       -4.0650   29.7010   21.3030 O.co2  51  GLU51      -0.2457
     42  OE2       -4.7670   31.2160   19.8900 O.co2  51  GLU51      -0.2457
     43  N         -7.4250   27.8680   18.5550 N.am   52  TRP52      -0.1976
     44  CA        -8.4580   26.9190   18.9640 C.3    52  TRP52       0.1640
     45  C         -9.6040   26.8220   17.9510 C.2    52  TRP52       0.2290
     46  O        -10.6330   26.2090   18.2390 O.2    52  TRP52      -0.2864
     47  CB        -8.9940   27.2750   20.3720 C.3    52  TRP52       0.0576
     48  CG        -8.1140   26.7780   21.5100 C.ar   52  TRP52       0.0006
     49  CD1       -6.8890   27.2560   21.8650 C.ar   52  TRP52       0.0946
     50  CD2       -8.4120   25.7250   22.4420 C.ar   52  TRP52       0.0152
     51  NE1       -6.3980   26.5600   22.9470 N.ar   52  TRP52      -0.2442
     52  CE2       -7.3120   25.6120   23.3190 C.ar   52  TRP52       0.0810
     53  CE3       -9.4980   24.8590   22.6220 C.ar   52  TRP52       0.0012
     54  CZ2       -7.2660   24.6640   24.3610 C.ar   52  TRP52       0.0191
     55  CZ3       -9.4500   23.9230   23.6380 C.ar   52  TRP52       0.0001
     56  CH2       -8.3510   23.8400   24.5040 C.ar   52  TRP52       0.0015
     57  N          0.3670   21.9270   17.1960 N.3   113  HIS113     -0.1226
     58  CA        -0.5830   22.4560   18.1620 C.3   113  HIS113      0.1752
     59  C         -1.7160   21.4460   18.3670 C.2   113  HIS113      0.2596
     60  O         -1.5950   20.2970   17.9500 O.2   113  HIS113     -0.2718
     61  CB        -1.0900   23.8460   17.7490 C.3   113  HIS113      0.0759
     62  CG        -1.4780   24.6820   18.9220 C.ar  113  HIS113      0.0818
     63  ND1       -2.7200   24.5950   19.5100 N.ar  113  HIS113     -0.2268
     64  CD2       -0.7650   25.5480   19.6770 C.ar  113  HIS113      0.1154
     65  CE1       -2.7630   25.3870   20.5630 C.ar  113  HIS113      0.1986
     66  NE2       -1.5890   25.9760   20.6900 N.ar  113  HIS113     -0.2212
     67  N         -2.8080   21.8520   19.0060 N.am  114  HIS114     -0.1975
     68  CA        -3.8540   20.9070   19.3900 C.3   114  HIS114      0.1656
     69  C         -4.5000   20.2340   18.1870 C.2   114  HIS114      0.2291
     70  O         -5.0120   19.1410   18.3100 O.2   114  HIS114     -0.2864
     71  CB        -4.9380   21.5860   20.2220 C.3   114  HIS114      0.0771
     72  CG        -4.4110   22.3360   21.3990 C.ar  114  HIS114      0.0820
     73  ND1       -3.2120   22.0300   21.9930 N.ar  114  HIS114     -0.2267
     74  CD2       -4.9190   23.3780   22.0940 C.ar  114  HIS114      0.1154
     75  CE1       -3.0000   22.8490   23.0060 C.ar  114  HIS114      0.1986
     76  NE2       -4.0160   23.6850   23.0820 N.ar  114  HIS114     -0.2212
     77  N          7.8590   23.7910   20.6700 N.3   156  TYR156     -0.1241
     78  CA         6.5910   23.5650   21.3580 C.3   156  TYR156      0.1605
     79  C          5.9750   22.3070   20.7470 C.2   156  TYR156      0.2264
     80  O          6.0430   22.1090   19.5270 O.2   156  TYR156     -0.2867
     81  CB         5.6490   24.7600   21.1610 C.3   156  TYR156      0.0534
     82  CG         4.1830   24.5290   21.5350 C.ar  156  TYR156     -0.0201
     83  CD1        3.6270   25.1510   22.6650 C.ar  156  TYR156     -0.0009
     84  CD2        3.3350   23.7460   20.7450 C.ar  156  TYR156     -0.0009
     85  CE1        2.2960   24.9740   23.0160 C.ar  156  TYR156      0.0417
     86  CE2        1.9850   23.5720   21.0980 C.ar  156  TYR156      0.0417
     87  CZ         1.4880   24.1850   22.2470 C.ar  156  TYR156      0.1957
     88  OH         0.1740   24.0380   22.6330 O.3   156  TYR156     -0.2866
     89  N          9.0320   22.4130   25.0390 N.3   207  TRP207     -0.1241
     90  CA         7.9090   23.1760   25.5950 C.3   207  TRP207      0.1605
     91  C          6.6210   22.4100   25.3310 C.2   207  TRP207      0.2264
     92  O          5.9850   22.5900   24.3030 O.2   207  TRP207     -0.2867
     93  CB         7.8100   24.5890   24.9710 C.3   207  TRP207      0.0550
     94  CG         7.3370   25.6600   25.8920 C.ar  207  TRP207      0.0003
     95  CD1        8.1200   26.5610   26.5480 C.ar  207  TRP207      0.0946
     96  CD2        5.9730   25.9770   26.2640 C.ar  207  TRP207      0.0152
     97  NE1        7.3450   27.3890   27.3210 N.ar  207  TRP207     -0.2442
     98  CE2        6.0250   27.0630   27.1590 C.ar  207  TRP207      0.0810
     99  CE3        4.7230   25.4440   25.9420 C.ar  207  TRP207      0.0012
    100  CZ2        4.8820   27.6330   27.7270 C.ar  207  TRP207      0.0191
    101  CZ3        3.5790   26.0120   26.5080 C.ar  207  TRP207      0.0001
    102  CH2        3.6700   27.1030   27.3850 C.ar  207  TRP207      0.0015
    103  N          2.6690   21.2300   26.0080 N.3   209  ASP209     -0.1225
    104  CA         1.4250   21.8600   26.4210 C.3   209  ASP209      0.1805
    105  C          0.3330   20.8530   26.7360 C.2   209  ASP209      0.2597
    106  O          0.2590   19.7890   26.1230 O.2   209  ASP209     -0.2718
    107  CB         0.9060   22.8280   25.3510 C.3   209  ASP209      0.1424
    108  CG         0.0340   23.9200   25.9450 C.2   209  ASP209      0.3668
    109  OD1       -0.6340   24.7050   25.2190 O.co2 209  ASP209     -0.2456
    110  OD2       -0.0340   24.0520   27.1790 O.co2 209  ASP209     -0.2456
    111  N         -0.5060   21.2210   27.7010 N.am  210  MET210     -0.1979
    112  CA        -1.7570   20.5330   28.0390 C.3   210  MET210      0.1605
    113  C         -1.5500   19.1630   28.6980 C.2   210  MET210      0.2287
    114  O         -2.4200   18.2910   28.6470 O.2   210  MET210     -0.2864
    115  CB        -2.6870   20.4480   26.8200 C.3   210  MET210      0.0413
    116  CG        -3.2160   21.8080   26.3870 C.3   210  MET210      0.0598
    117  SD        -4.1630   22.6140   27.7290 S.3   210  MET210     -0.1393
    118  CE        -5.8080   22.2600   27.2710 C.3   210  MET210      0.0692
    119  N          4.7570   21.4410   31.9590 N.3   239  ARG239     -0.1245
    120  CA         3.4090   21.1010   31.5020 C.3   239  ARG239      0.1563
    121  C          3.2920   19.6570   31.0430 C.2   239  ARG239      0.2260
    122  O          2.5010   19.3330   30.1630 O.2   239  ARG239     -0.2867
    123  CB         3.0040   22.0440   30.3910 C.3   239  ARG239      0.0307
    124  CG         2.9770   23.4630   30.8580 C.3   239  ARG239      0.0489
    125  CD         2.2690   24.4030   29.9190 C.3   239  ARG239      0.2205
    126  NE         1.9570   25.6460   30.6120 N.pl3 239  ARG239     -0.0865
    127  CZ         1.1290   26.5670   30.1570 C.cat 239  ARG239      0.5346
    128  NH1        0.4990   26.4120   28.9940 N.pl3 239  ARG239      0.1354
    129  NH2        0.9350   27.6570   30.8770 N.pl3 239  ARG239      0.1354
    130  N          0.5700   31.8650   32.7050 N.3   251  GLU251     -0.1245
    131  CA        -0.1740   32.6370   31.7090 C.3   251  GLU251      0.1567
    132  C         -1.0160   33.7600   32.3250 C.2   251  GLU251      0.2260
    133  O         -1.6060   34.5510   31.5890 O.2   251  GLU251     -0.2867
    134  CB        -1.0950   31.7180   30.9130 C.3   251  GLU251      0.0388
    135  CG        -0.4080   30.9350   29.8120 C.3   251  GLU251      0.1160
    136  CD        -1.3800   30.0360   29.0580 C.2   251  GLU251      0.3649
    137  OE1       -2.4830   30.4950   28.7000 O.co2 251  GLU251     -0.2457
    138  OE2       -1.0490   28.8660   28.8220 O.co2 251  GLU251     -0.2457
    139  N          4.2000   33.7530   29.7140 N.3   262  THR262     -0.1218
    140  CA         3.9470   33.7950   28.2920 C.3   262  THR262      0.1862
    141  C          2.5760   34.4170   28.0170 C.2   262  THR262      0.2287
    142  O          1.5930   34.1320   28.6970 O.2   262  THR262     -0.2866
    143  CB         4.0900   32.3850   27.6620 C.3   262  THR262      0.1770
    144  OG1        4.0400   32.4910   26.2400 O.3   262  THR262     -0.2211
    145  CG2        2.9180   31.4580   27.9980 C.3   262  THR262      0.0375
    146  N         -3.0510   33.8100   20.7430 N.3   269  PHE269     -0.1241
    147  CA        -1.7050   33.4090   20.3390 C.3   269  PHE269      0.1605
    148  C         -1.6170   33.3200   18.8090 C.2   269  PHE269      0.2264
    149  O         -0.7250   33.9050   18.1910 O.2   269  PHE269     -0.2867
    150  CB        -1.2840   32.0930   21.0050 C.3   269  PHE269      0.0534
    151  CG        -0.9840   32.2270   22.4720 C.ar  269  PHE269     -0.0203
    152  CD1       -2.0160   32.3260   23.3990 C.ar  269  PHE269     -0.0042
    153  CD2        0.3250   32.2570   22.9300 C.ar  269  PHE269     -0.0042
    154  CE1       -1.7470   32.4530   24.7550 C.ar  269  PHE269     -0.0003
    155  CE2        0.6040   32.3900   24.2910 C.ar  269  PHE269     -0.0003
    156  CZ        -0.4350   32.4850   25.2030 C.ar  269  PHE269     -0.0000
@<TRIPOS>BOND
     1    15    14    2
     2    14    13    1
     3    13    12    1
     4    13    16    1
     5    57    58    1
     6    37    36    2
     7    35    34    1
     8    35    36    1
     9    35    38    1
    10    36    43   am
    11    61    58    1
    12    61    62    1
    13    60    59    2
    14    45    46    2
    15    45    44    1
    16    16    17    1
    17    58    59    1
    18    69    70    2
    19    69    68    1
    20   149   148    2
    21    59    67   am
    22    38    39    1
    23    43    44    1
    24   148   147    1
    25    62    63   ar
    26    62    64   ar
    27    44    47    1
    28    39    40    1
    29    67    68    1
    30     4     3    2
    31    17    19   ar
    32    17    18   ar
    33    68    71    1
    34    63    65   ar
    35    80    79    2
    36     3     2    1
    37    64    66   ar
    38    25    24    2
    39    24    23    1
    40    42    40   ar
    41    19    21   ar
    42    40    41   ar
    43    71    72    1
    44    18    20   ar
    45   147   146    1
    46   147   150    1
    47    47    48    1
    48    65    66   ar
    49    77    78    1
    50    84    86   ar
    51    84    82   ar
    52    79    78    1
    53     2     1    1
    54     2     5    1
    55   150   151    1
    56    86    87   ar
    57    21    20   ar
    58    81    78    1
    59    81    82    1
    60    23    22    1
    61    23    26    1
    62    72    73   ar
    63    72    74   ar
    64    48    49   ar
    65    48    50   ar
    66    82    83   ar
    67    49    51   ar
    68     5     6    1
    69    73    75   ar
    70    74    76   ar
    71    26    27    1
    72     7     6   ar
    73     7     9   ar
    74    87    88    1
    75    87    85   ar
    76    50    53   ar
    77    50    52   ar
    78   151   153   ar
    79   151   152   ar
    80     6     8   ar
    81    53    55   ar
    82    83    85   ar
    83     9    11   ar
    84   153   155   ar
    85    51    52   ar
    86    75    76   ar
    87    52    54   ar
    88   152   154   ar
    89    27    29   ar
    90    27    28   ar
    91    55    56   ar
    92     8    10   ar
    93    29    31   ar
    94    11    10   ar
    95    28    30   ar
    96   155   156   ar
    97    92    91    2
    98    54    56   ar
    99   154   156   ar
   100    93    90    1
   101    93    94    1
   102    31    32   ar
   103    89    90    1
   104   109   108   ar
   105    91    90    1
   106   107   108    1
   107   107   104    1
   108    30    32   ar
   109    32    33    1
   110    94    96   ar
   111    94    95   ar
   112    99    96   ar
   113    99   101   ar
   114   108   110   ar
   115   103   104    1
   116   106   105    2
   117   144   143    1
   118    96    98   ar
   119   116   115    1
   120   116   117    1
   121   104   105    1
   122   101   102   ar
   123    95    97   ar
   124   105   111   am
   125   115   112    1
   126    98    97   ar
   127    98   100   ar
   128   118   117    1
   129   102   100   ar
   130   143   145    1
   131   143   140    1
   132   111   112    1
   133   141   140    1
   134   141   142    2
   135   112   113    1
   136   140   139    1
   137   114   113    2
   138   137   136   ar
   139   138   136   ar
   140   128   127    1
   141   136   135    1
   142   135   134    1
   143   125   126    1
   144   125   124    1
   145   127   126    2
   146   127   129    1
   147   122   121    2
   148   123   124    1
   149   123   120    1
   150   134   131    1
   151   121   120    1
   152   120   119    1
   153   133   132    2
   154   131   132    1
   155   131   130    1
