@<TRIPOS>MOLECULE
tmp/1hlbA00.pdb
 218 211 0 0 0
SMALL
GASTEIGER

@<TRIPOS>ATOM
      1  N         20.4880   16.2760   15.3010 N.3    39  PHE39      -0.1241
      2  CA        21.1320   16.1660   14.0220 C.3    39  PHE39       0.1605
      3  C         22.2110   15.1150   14.0270 C.2    39  PHE39       0.2264
      4  O         22.2850   14.3060   13.0870 O.2    39  PHE39      -0.2867
      5  CB        21.6760   17.5360   13.6220 C.3    39  PHE39       0.0534
      6  CG        20.5910   18.1690   12.7650 C.ar   39  PHE39      -0.0203
      7  CD1       20.5260   17.8430   11.3930 C.ar   39  PHE39      -0.0042
      8  CD2       19.6300   19.0220   13.3210 C.ar   39  PHE39      -0.0042
      9  CE1       19.5070   18.3590   10.5990 C.ar   39  PHE39      -0.0003
     10  CE2       18.6110   19.5300   12.5160 C.ar   39  PHE39      -0.0003
     11  CZ        18.5480   19.1950   11.1620 C.ar   39  PHE39      -0.0000
     12  N         20.5210   11.7780   13.2950 N.3    42  ILE42      -0.1231
     13  CA        19.9720   11.6150   11.9460 C.3    42  ILE42       0.1692
     14  C         21.1070   11.1080   11.0640 C.2    42  ILE42       0.2592
     15  O         20.9830   10.1490   10.2940 O.2    42  ILE42      -0.2718
     16  CB        19.4180   12.9820   11.3540 C.3    42  ILE42       0.0266
     17  CG1       18.2180   13.5770   12.0920 C.3    42  ILE42       0.0019
     18  CG2       18.9620   12.6830    9.9460 C.3    42  ILE42       0.0020
     19  CD1       17.6720   14.8370   11.3830 C.3    42  ILE42       0.0001
     20  N         22.2610   11.7180   11.2560 N.am   43  PHE43      -0.1976
     21  CA        23.4120   11.3200   10.5010 C.3    43  PHE43       0.1639
     22  C         23.9280    9.9270   10.7990 C.2    43  PHE43       0.2290
     23  O         24.7810    9.4100   10.0690 O.2    43  PHE43      -0.2864
     24  CB        24.5010   12.3380   10.7500 C.3    43  PHE43       0.0560
     25  CG        24.1500   13.7340   10.2900 C.ar   43  PHE43      -0.0200
     26  CD1       23.0500   13.9520    9.4520 C.ar   43  PHE43      -0.0042
     27  CD2       24.9630   14.7840   10.6950 C.ar   43  PHE43      -0.0042
     28  CE1       22.7610   15.2360    9.0190 C.ar   43  PHE43      -0.0003
     29  CE2       24.6630   16.0560   10.2550 C.ar   43  PHE43      -0.0003
     30  CZ        23.5730   16.2890    9.4190 C.ar   43  PHE43      -0.0000
     31  N         22.4080   11.9530    4.6420 N.3    49  ALA49      -0.1245
     32  CA        22.0050   13.2370    5.2310 C.3    49  ALA49       0.1562
     33  C         23.2160   14.0540    5.6500 C.2    49  ALA49       0.2260
     34  O         23.1410   15.2770    5.6810 O.2    49  ALA49      -0.2867
     35  CB        21.1460   13.0420    6.4760 C.3    49  ALA49       0.0290
     36  N         24.6090   15.9480    2.3830 N.3    52  LYS52      -0.1231
     37  CA        23.9710   17.1400    1.8410 C.3    52  LYS52       0.1693
     38  C         24.7050   18.3720    2.3120 C.2    52  LYS52       0.2592
     39  O         24.5050   19.4160    1.6950 O.2    52  LYS52      -0.2718
     40  CB        22.5090   17.2760    2.2780 C.3    52  LYS52       0.0285
     41  CG        21.6050   16.1080    1.9000 C.3    52  LYS52       0.0035
     42  CD        21.3670   16.1030    0.4240 C.3    52  LYS52       0.0206
     43  CE        20.8810   14.7320    0.0570 C.3    52  LYS52       0.1093
     44  NZ        20.0000   14.8190   -1.0890 N.3    52  LYS52      -0.1314
     45  N         25.5160   18.2880    3.3860 N.am   53  PHE53      -0.1963
     46  CA        26.3190   19.4030    3.8530 C.3    53  PHE53       0.1756
     47  C         27.7210   19.0280    3.4360 C.2    53  PHE53       0.2461
     48  O         28.4040   18.2690    4.1470 O.2    53  PHE53      -0.2730
     49  CB        26.3640   19.5470    5.3500 C.3    53  PHE53       0.0574
     50  CG        25.0760   19.8540    6.0640 C.ar   53  PHE53      -0.0200
     51  CD1       24.2610   18.7970    6.5040 C.ar   53  PHE53      -0.0042
     52  CD2       24.7470   21.1950    6.3300 C.ar   53  PHE53      -0.0042
     53  CE1       23.1070   19.1030    7.2260 C.ar   53  PHE53      -0.0003
     54  CE2       23.5920   21.4730    7.0540 C.ar   53  PHE53      -0.0003
     55  CZ        22.7780   20.4320    7.5030 C.ar   53  PHE53      -0.0000
     56  N         28.1990   19.5050    2.2810 N.am   54  PRO54      -0.2727
     57  CA        29.3510   18.9300    1.5930 C.3    54  PRO54       0.1402
     58  C         30.6380   18.9070    2.4190 C.2    54  PRO54       0.2269
     59  O         31.2110   17.8600    2.7010 O.2    54  PRO54      -0.2865
     60  CB        29.4150   19.7610    0.3220 C.3    54  PRO54       0.0296
     61  CG        27.9610   20.0700    0.0700 C.3    54  PRO54       0.0237
     62  CD        27.5500   20.5190    1.4680 C.3    54  PRO54       0.0939
     63  N         29.4270   25.4880   10.7480 N.3    69  GLN69      -0.1245
     64  CA        28.2900   25.1730    9.9140 C.3    69  GLN69       0.1566
     65  C         27.2100   24.3060   10.6140 C.2    69  GLN69       0.2260
     66  O         26.0170   24.5640   10.3750 O.2    69  GLN69      -0.2867
     67  CB        28.8680   24.5110    8.6470 C.3    69  GLN69       0.0367
     68  CG        27.9960   23.5280    7.8570 C.3    69  GLN69       0.0905
     69  CD        28.1160   23.6300    6.3410 C.2    69  GLN69       0.2608
     70  OE1       27.9620   22.6240    5.6590 O.2    69  GLN69      -0.2717
     71  NE2       28.3710   24.7370    5.6550 N.am   69  GLN69      -0.0878
     72  N         23.6230   25.7590   11.6880 N.3    73  HIS73      -0.1241
     73  CA        22.4110   25.2640   11.0520 C.3    73  HIS73       0.1621
     74  C         21.4530   24.9820   12.1810 C.2    73  HIS73       0.2264
     75  O         20.3030   25.4410   12.1220 O.2    73  HIS73      -0.2867
     76  CB        22.6980   23.9860   10.1870 C.3    73  HIS73       0.0745
     77  CG        21.4650   23.2480    9.6190 C.ar   73  HIS73       0.0817
     78  ND1       20.9020   22.1470   10.0890 N.ar   73  HIS73      -0.2268
     79  CD2       20.6410   23.6970    8.5970 C.ar   73  HIS73       0.1154
     80  CE1       19.7800   21.9140    9.4290 C.ar   73  HIS73       0.1986
     81  NE2       19.6430   22.8560    8.5400 N.ar   73  HIS73      -0.2212
     82  N         19.6200   27.8300   13.7900 N.3    76  ARG76      -0.1231
     83  CA        18.6540   28.2760   12.8260 C.3    76  ARG76       0.1694
     84  C         17.4190   27.3880   12.8160 C.2    76  ARG76       0.2591
     85  O         16.3220   27.9020   12.5500 O.2    76  ARG76      -0.2718
     86  CB        19.2760   28.3230   11.4160 C.3    76  ARG76       0.0321
     87  CG        20.2370   29.4920   11.2270 C.3    76  ARG76       0.0489
     88  CD        20.7620   29.5160    9.8200 C.3    76  ARG76       0.2205
     89  NE        22.1170   30.0330    9.8100 N.pl3  76  ARG76      -0.0865
     90  CZ        22.4460   31.2130    9.2810 C.cat  76  ARG76       0.5346
     91  NH1       21.6050   32.0760    8.6860 N.pl3  76  ARG76       0.1354
     92  NH2       23.7060   31.5450    9.3930 N.pl3  76  ARG76       0.1354
     93  N         17.5710   26.0780   13.0670 N.am   77  VAL77      -0.1980
     94  CA        16.4340   25.1550   13.1990 C.3    77  VAL77       0.1595
     95  C         15.7350   25.5970   14.4900 C.2    77  VAL77       0.2287
     96  O         14.5600   25.9750   14.5280 O.2    77  VAL77      -0.2864
     97  CB        16.9010   23.6650   13.3440 C.3    77  VAL77       0.0276
     98  CG1       15.6610   22.8100   13.5520 C.3    77  VAL77       0.0022
     99  CG2       17.6750   23.1650   12.1140 C.3    77  VAL77       0.0022
    100  N         13.5750   29.0210   14.0650 N.3    80  ILE80      -0.1231
    101  CA        12.3470   28.8450   13.2850 C.3    80  ILE80       0.1692
    102  C         11.3490   28.0790   14.1520 C.2    80  ILE80       0.2591
    103  O         10.1590   28.4300   14.2350 O.2    80  ILE80      -0.2718
    104  CB        12.6410   28.0590   11.9370 C.3    80  ILE80       0.0266
    105  CG1       13.0330   29.0560   10.8790 C.3    80  ILE80       0.0019
    106  CG2       11.4260   27.3100   11.3650 C.3    80  ILE80       0.0020
    107  CD1       14.4270   29.6600   11.0350 C.3    80  ILE80       0.0001
    108  N         11.8680   27.0660   14.8580 N.am   81  MET81      -0.1979
    109  CA        11.0590   26.2390   15.7250 C.3    81  MET81       0.1605
    110  C         10.5270   27.0920   16.8580 C.2    81  MET81       0.2287
    111  O          9.3070   27.2500   16.9590 O.2    81  MET81      -0.2864
    112  CB        11.9180   25.0510   16.2120 C.3    81  MET81       0.0413
    113  CG        12.1670   24.0800   15.0150 C.3    81  MET81       0.0598
    114  SD        11.7170   22.3220   15.2030 S.3    81  MET81      -0.1393
    115  CE         9.9430   22.4450   15.1190 C.3    81  MET81       0.0692
    116  N          9.2110   29.6880    6.5200 N.3    97  LEU97      -0.1245
    117  CA         9.7740   28.5510    5.8440 C.3    97  LEU97       0.1561
    118  C         10.2500   28.8900    4.4250 C.2    97  LEU97       0.2260
    119  O         10.7940   27.9950    3.7550 O.2    97  LEU97      -0.2867
    120  CB         8.6750   27.5090    5.8460 C.3    97  LEU97       0.0270
    121  CG         7.9580   27.2030    7.1370 C.3    97  LEU97       0.0019
    122  CD1        7.1370   25.9550    6.9480 C.3    97  LEU97       0.0001
    123  CD2        8.9630   26.9090    8.2560 C.3    97  LEU97       0.0001
    124  N         12.7210   30.8290    2.7010 N.3    99  THR99      -0.1203
    125  CA        14.0790   30.7440    2.1900 C.3    99  THR99       0.1994
    126  C         14.6610   29.3550    2.4160 C.2    99  THR99       0.2617
    127  O         15.3410   28.8070    1.5420 O.2    99  THR99      -0.2717
    128  CB        14.9030   31.8420    2.8790 C.3    99  THR99       0.1784
    129  OG1       14.6910   31.6960    4.2760 O.3    99  THR99      -0.2211
    130  CG2       14.5020   33.2410    2.4190 C.3    99  THR99       0.0376
    131  N         14.3400   28.8210    3.6080 N.am  100  LEU100     -0.1979
    132  CA        14.6430   27.4540    4.0720 C.3   100  LEU100      0.1596
    133  C         14.3510   26.4350    2.9860 C.2   100  LEU100      0.2287
    134  O         15.1440   25.5490    2.6430 O.2   100  LEU100     -0.2864
    135  CB        13.7730   27.1440    5.3380 C.3   100  LEU100      0.0297
    136  CG        13.3370   25.7880    5.9970 C.3   100  LEU100      0.0022
    137  CD1       12.2450   26.1760    6.9860 C.3   100  LEU100      0.0001
    138  CD2       12.5550   24.7830    5.1460 C.3   100  LEU100      0.0001
    139  N         16.6580   26.9160   -0.1000 N.3   103  THR103     -0.1203
    140  CA        18.0350   26.4520    0.0120 C.3   103  THR103      0.1994
    141  C         18.0460   24.9420    0.2080 C.2   103  THR103      0.2617
    142  O         18.8600   24.2220   -0.3810 O.2   103  THR103     -0.2717
    143  CB        18.7370   27.1390    1.1780 C.3   103  THR103      0.1784
    144  OG1       18.0390   26.7350    2.3400 O.3   103  THR103     -0.2211
    145  CG2       18.6310   28.6370    1.1680 C.3   103  THR103      0.0376
    146  N         17.0690   24.4030    0.9450 N.am  104  HIS104     -0.1975
    147  CA        16.9690   22.9460    1.0830 C.3   104  HIS104      0.1656
    148  C         16.8090   22.2560   -0.2770 C.2   104  HIS104      0.2291
    149  O         17.5710   21.3490   -0.6310 O.2   104  HIS104     -0.2864
    150  CB        15.7930   22.5650    1.9710 C.3   104  HIS104      0.0771
    151  CG        16.0790   22.7180    3.4620 C.ar  104  HIS104      0.0820
    152  ND1       15.1130   22.9100    4.3410 N.ar  104  HIS104     -0.2267
    153  CD2       17.3060   22.6740    4.1330 C.ar  104  HIS104      0.1154
    154  CE1       15.6770   22.9920    5.5170 C.ar  104  HIS104      0.1986
    155  NE2       16.9770   22.8360    5.3760 N.ar  104  HIS104     -0.2212
    156  N         17.7550   23.3670   -3.0570 N.3   106  LEU106     -0.1231
    157  CA        18.9510   23.6170   -3.8440 C.3   106  LEU106      0.1693
    158  C         20.0080   22.6190   -3.4040 C.2   106  LEU106      0.2592
    159  O         20.8030   22.1740   -4.2280 O.2   106  LEU106     -0.2718
    160  CB        19.3520   25.0370   -3.5890 C.3   106  LEU106      0.0284
    161  CG        20.5640   25.7300   -4.1470 C.3   106  LEU106      0.0019
    162  CD1       20.3250   27.1910   -3.8570 C.3   106  LEU106      0.0001
    163  CD2       21.8840   25.3430   -3.4850 C.3   106  LEU106      0.0001
    164  N         20.0820   22.2300   -2.1280 N.am  107  ASN107     -0.1974
    165  CA        21.0160   21.1840   -1.7350 C.3   107  ASN107      0.1688
    166  C         20.3440   19.8100   -1.7310 C.2   107  ASN107      0.2292
    167  O         20.8760   18.8640   -1.1600 O.2   107  ASN107     -0.2864
    168  CB        21.5880   21.4610   -0.3370 C.3   107  ASN107      0.1181
    169  CG        22.5950   22.6020   -0.2320 C.2   107  ASN107      0.2629
    170  OD1       23.7320   22.4140   -0.6260 O.2   107  ASN107     -0.2716
    171  ND2       22.2990   23.8200    0.2420 N.am  107  ASN107     -0.0877
    172  N         17.6160   18.5980   -0.2090 N.3   109  VAL109     -0.1245
    173  CA        17.0950   18.1340    1.0510 C.3   109  VAL109      0.1561
    174  C         15.5740   18.1190    0.8510 C.2   109  VAL109      0.2260
    175  O         14.9580   19.1480    0.5330 O.2   109  VAL109     -0.2867
    176  CB        17.5340   19.1270    2.2010 C.3   109  VAL109      0.0252
    177  CG1       16.9400   18.6640    3.5470 C.3   109  VAL109      0.0019
    178  CG2       19.0630   19.2030    2.2930 C.3   109  VAL109      0.0019
    179  N         13.9960   13.7990    4.5300 N.3   113  HIS113     -0.1226
    180  CA        14.9430   14.3950    5.4570 C.3   113  HIS113      0.1752
    181  C         14.1020   15.0490    6.5570 C.2   113  HIS113      0.2596
    182  O         14.4070   14.8940    7.7520 O.2   113  HIS113     -0.2718
    183  CB        15.8270   15.3920    4.7250 C.3   113  HIS113      0.0759
    184  CG        16.7180   14.7180    3.6920 C.ar  113  HIS113      0.0818
    185  ND1       17.9490   14.2810    3.8800 N.ar  113  HIS113     -0.2268
    186  CD2       16.3820   14.5120    2.3620 C.ar  113  HIS113      0.1154
    187  CE1       18.3840   13.8280    2.7310 C.ar  113  HIS113      0.1986
    188  NE2       17.4370   13.9760    1.8270 N.ar  113  HIS113     -0.2212
    189  N         12.9920   15.6780    6.1290 N.am  114  TYR114     -0.1976
    190  CA        11.9810   16.1720    7.0520 C.3   114  TYR114      0.1639
    191  C         11.2960   15.0640    7.8800 C.2   114  TYR114      0.2290
    192  O         11.1050   15.1890    9.0960 O.2   114  TYR114     -0.2864
    193  CB        10.9570   16.8940    6.2780 C.3   114  TYR114      0.0560
    194  CG        11.5070   18.1910    5.7040 C.ar  114  TYR114     -0.0198
    195  CD1       12.2630   19.0790    6.4830 C.ar  114  TYR114     -0.0009
    196  CD2       11.2160   18.5120    4.3840 C.ar  114  TYR114     -0.0009
    197  CE1       12.7220   20.2750    5.9360 C.ar  114  TYR114      0.0417
    198  CE2       11.6690   19.6950    3.8430 C.ar  114  TYR114      0.0417
    199  CZ        12.4200   20.5650    4.6150 C.ar  114  TYR114      0.1957
    200  OH        12.8900   21.7250    4.0120 O.3   114  TYR114     -0.2866
    201  N         13.8410   13.9040   10.4360 N.3   117  PHE117     -0.1241
    202  CA        13.8730   14.9040   11.4870 C.3   117  PHE117      0.1605
    203  C         12.7060   14.6890   12.4470 C.2   117  PHE117      0.2264
    204  O         12.9080   14.6170   13.6710 O.2   117  PHE117     -0.2867
    205  CB        13.8120   16.3230   10.8660 C.3   117  PHE117      0.0534
    206  CG        13.7920   17.4330   11.9050 C.ar  117  PHE117     -0.0203
    207  CD1       14.9870   17.8120   12.5360 C.ar  117  PHE117     -0.0042
    208  CD2       12.5660   18.0460   12.2370 C.ar  117  PHE117     -0.0042
    209  CE1       14.9450   18.8140   13.5170 C.ar  117  PHE117     -0.0003
    210  CE2       12.5520   19.0430   13.2210 C.ar  117  PHE117     -0.0003
    211  CZ        13.7340   19.4340   13.8580 C.ar  117  PHE117     -0.0000
    212  N          2.6900   21.9910    9.2320 N.3   148  VAL148     -0.1245
    213  CA         3.9610   22.4460    8.7330 C.3   148  VAL148      0.1561
    214  C          4.2620   21.6940    7.4440 C.2   148  VAL148      0.2260
    215  O          4.5900   22.2990    6.4270 O.2   148  VAL148     -0.2867
    216  CB         4.9940   22.1960    9.8690 C.3   148  VAL148      0.0252
    217  CG1        6.4060   22.6060    9.4710 C.3   148  VAL148      0.0019
    218  CG2        4.5850   23.0370   11.0600 C.3   148  VAL148      0.0019
@<TRIPOS>BOND
     1   159   158    2
     2   161   162    1
     3   161   160    1
     4   161   163    1
     5   157   160    1
     6   157   158    1
     7   157   156    1
     8   158   164   am
     9   164   165    1
    10   165   166    1
    11   165   168    1
    12   166   167    2
    13    44    43    1
    14   149   148    2
    15   170   169    2
    16   142   141    2
    17   168   169    1
    18   148   147    1
    19   169   171   am
    20   172   173    1
    21   139   140    1
    22   140   141    1
    23   140   143    1
    24    43    42    1
    25    61    60    1
    26    61    62    1
    27   141   146   am
    28    60    57    1
    29    42    41    1
    30   175   174    2
    31   174   173    1
    32   146   147    1
    33   173   176    1
    34   147   150    1
    35   145   143    1
    36   143   144    1
    37    62    56    1
    38   127   126    2
    39    57    56    1
    40    57    58    1
    41    39    38    2
    42   188   186   ar
    43   188   187   ar
    44    37    40    1
    45    37    38    1
    46    37    36    1
    47    41    40    1
    48   150   151    1
    49   125   126    1
    50   125   124    1
    51   125   128    1
    52   176   178    1
    53   176   177    1
    54    56    47   am
    55    38    45   am
    56   186   184   ar
    57   126   131   am
    58    58    59    2
    59   130   128    1
    60   134   133    2
    61   187   185   ar
    62   128   129    1
    63   133   132    1
    64    45    46    1
    65    47    46    1
    66    47    48    2
    67   151   153   ar
    68   151   152   ar
    69   131   132    1
    70   184   185   ar
    71   184   183    1
    72   119   118    2
    73   198   196   ar
    74   198   199   ar
    75    46    49    1
    76   200   199    1
    77   132   135    1
    78   153   155   ar
    79   152   154   ar
    80   196   194   ar
    81   118   117    1
    82   179   180    1
    83   199   197   ar
    84    31    32    1
    85   183   180    1
    86   138   136    1
    87    32    33    1
    88    32    35    1
    89   135   136    1
    90    49    50    1
    91   155   154   ar
    92   180   181    1
    93    33    34    2
    94    71    69   am
    95    70    69    2
    96   194   193    1
    97   194   195   ar
    98   117   120    1
    99   117   116    1
   100   120   121    1
   101   197   195   ar
   102   136   137    1
   103    50    52   ar
   104    50    51   ar
   105   189   181   am
   106   189   190    1
   107   193   190    1
   108    52    54   ar
   109    69    68    1
   110   215   214    2
   111    51    53   ar
   112   181   182    2
   113   122   121    1
   114   190   191    1
   115    54    55   ar
   116   121   123    1
   117    53    55   ar
   118   214   213    1
   119    68    67    1
   120   191   192    2
   121    81    79   ar
   122    81    80   ar
   123    79    77   ar
   124    67    64    1
   125    91    90    1
   126   213   212    1
   127   213   216    1
   128    28    30   ar
   129    28    26   ar
   130    90    92    1
   131    90    89    2
   132    30    29   ar
   133    80    78   ar
   134    26    25   ar
   135   217   216    1
   136    77    78   ar
   137    77    76    1
   138    89    88    1
   139    88    87    1
   140   216   218    1
   141    64    65    1
   142    64    63    1
   143    18    16    1
   144    23    22    2
   145    76    73    1
   146    29    27   ar
   147    25    27   ar
   148    25    24    1
   149    15    14    2
   150    66    65    2
   151   201   202    1
   152    21    24    1
   153    21    22    1
   154    21    20    1
   155     9    11   ar
   156     9     7   ar
   157   205   202    1
   158   205   206    1
   159   105   107    1
   160   105   104    1
   161    73    72    1
   162    73    74    1
   163    14    20   am
   164    14    13    1
   165    11    10   ar
   166    87    86    1
   167    16    13    1
   168    16    17    1
   169   106   104    1
   170    19    17    1
   171     7     6   ar
   172    86    83    1
   173   202   203    1
   174   206   208   ar
   175   206   207   ar
   176   104   101    1
   177    13    12    1
   178    99    97    1
   179    75    74    2
   180   208   210   ar
   181   203   204    2
   182    10     8   ar
   183   207   209   ar
   184    85    84    2
   185     6     8   ar
   186     6     5    1
   187    84    83    1
   188    84    93   am
   189    83    82    1
   190    93    94    1
   191     4     3    2
   192    94    97    1
   193    94    95    1
   194   210   211   ar
   195   101   100    1
   196   101   102    1
   197    97    98    1
   198   209   211   ar
   199     5     2    1
   200     2     3    1
   201     2     1    1
   202   102   103    2
   203   102   108   am
   204    95    96    2
   205   108   109    1
   206   113   114    1
   207   113   112    1
   208   115   114    1
   209   109   112    1
   210   109   110    1
   211   110   111    2
