@<TRIPOS>MOLECULE
tmp/1hlcB00.pdb
 94 87 0 0 0
SMALL
GASTEIGER

@<TRIPOS>ATOM
      1  N         10.0630   34.5310   72.5860 N.3    29  VAL29      -0.1245
      2  CA        11.4430   34.2730   72.9550 C.3    29  VAL29       0.1561
      3  C         12.3500   34.1630   71.7410 C.2    29  VAL29       0.2260
      4  O         11.9290   33.7020   70.6900 O.2    29  VAL29      -0.2867
      5  CB        11.5560   32.9520   73.7370 C.3    29  VAL29       0.0252
      6  CG1       12.9490   32.7710   74.2440 C.3    29  VAL29       0.0019
      7  CG2       10.5710   32.9150   74.8620 C.3    29  VAL29       0.0019
      8  N         18.9550   34.3280   76.2810 N.3    42  HIS42      -0.1241
      9  CA        17.5550   33.9610   76.1810 C.3    42  HIS42       0.1621
     10  C         16.8200   35.3070   76.2660 C.2    42  HIS42       0.2264
     11  O         16.6990   35.8740   77.3470 O.2    42  HIS42      -0.2867
     12  CB        17.1910   33.0120   77.3360 C.3    42  HIS42       0.0745
     13  CG        15.7240   32.9360   77.6290 C.ar   42  HIS42       0.0817
     14  ND1       14.8450   32.2140   76.8560 N.ar   42  HIS42      -0.2268
     15  CD2       14.9810   33.4920   78.6190 C.ar   42  HIS42       0.1154
     16  CE1       13.6260   32.3280   77.3530 C.ar   42  HIS42       0.1986
     17  NE2       13.6820   33.0980   78.4220 N.ar   42  HIS42      -0.2212
     18  N         13.5690   37.4180   76.1570 N.3    44  ASN44      -0.1240
     19  CA        12.1420   37.1840   76.3140 C.3    44  ASN44       0.1653
     20  C         11.2650   38.3660   76.7520 C.2    44  ASN44       0.2266
     21  O         11.2460   38.7300   77.9270 O.2    44  ASN44      -0.2867
     22  CB        11.9440   36.0110   77.2870 C.3    44  ASN44       0.1155
     23  CG        10.4910   35.6550   77.5030 C.2    44  ASN44       0.2627
     24  OD1       10.1490   35.0430   78.4940 O.2    44  ASN44      -0.2716
     25  ND2        9.6420   35.9810   76.5490 N.am   44  ASN44      -0.0877
     26  N          8.0470   40.0850   77.9350 N.3    46  ARG46      -0.1245
     27  CA         6.7750   39.7470   78.5730 C.3    46  ARG46       0.1563
     28  C          5.7760   40.9020   78.6040 C.2    46  ARG46       0.2260
     29  O          5.9480   41.8580   79.3510 O.2    46  ARG46      -0.2867
     30  CB         6.9970   39.2290   79.9980 C.3    46  ARG46       0.0307
     31  CG         7.1170   37.7230   80.1020 C.3    46  ARG46       0.0489
     32  CD         8.5370   37.2790   80.3680 C.3    46  ARG46       0.2205
     33  NE         8.6040   36.4930   81.5960 N.pl3  46  ARG46      -0.0865
     34  CZ         9.6330   35.7370   81.9710 C.cat  46  ARG46       0.5346
     35  NH1       10.7200   35.6230   81.2300 N.pl3  46  ARG46       0.1354
     36  NH2        9.5970   35.1160   83.1330 N.pl3  46  ARG46       0.1354
     37  N          3.8890   41.0230   81.8300 N.3    49  GLU49      -0.1245
     38  CA         4.6260   41.6290   82.9350 C.3    49  GLU49       0.1567
     39  C          5.2640   42.9420   82.5010 C.2    49  GLU49       0.2260
     40  O          5.9330   43.6100   83.2820 O.2    49  GLU49      -0.2867
     41  CB         5.7380   40.6880   83.4070 C.3    49  GLU49       0.0388
     42  CG         5.2760   39.3550   83.9680 C.3    49  GLU49       0.1160
     43  CD         6.2810   38.7960   84.9450 C.2    49  GLU49       0.3649
     44  OE1        6.4000   39.3740   86.0440 O.co2  49  GLU49      -0.2457
     45  OE2        6.9740   37.8120   84.6080 O.co2  49  GLU49      -0.2457
     46  N         12.7530   39.9300   79.8110 N.3    53  VAL53      -0.1245
     47  CA        13.5210   39.0660   80.7030 C.3    53  VAL53       0.1561
     48  C         14.6750   38.4520   79.8930 C.2    53  VAL53       0.2260
     49  O         14.4650   37.9280   78.7970 O.2    53  VAL53      -0.2867
     50  CB        12.6420   37.9420   81.2970 C.3    53  VAL53       0.0252
     51  CG1       13.4640   37.0680   82.1820 C.3    53  VAL53       0.0019
     52  CG2       11.4840   38.5170   82.0740 C.3    53  VAL53       0.0019
     53  N         18.2170   35.9640   80.3240 N.3    55  ASN55      -0.1240
     54  CA        18.8790   34.9890   81.1950 C.3    55  ASN55       0.1653
     55  C         19.6930   34.0240   80.3350 C.2    55  ASN55       0.2266
     56  O         19.6720   34.1260   79.1110 O.2    55  ASN55      -0.2867
     57  CB        17.8520   34.2180   82.0220 C.3    55  ASN55       0.1155
     58  CG        18.4610   33.5490   83.2450 C.2    55  ASN55       0.2627
     59  OD1       19.6780   33.5680   83.4420 O.2    55  ASN55      -0.2716
     60  ND2       17.6130   32.9620   84.0750 N.am   55  ASN55      -0.0877
     61  N         19.5660   27.7080   84.9610 N.3    62  TRP62      -0.1241
     62  CA        19.1390   29.0270   84.5160 C.3    62  TRP62       0.1605
     63  C         19.9020   30.0310   85.3520 C.2    62  TRP62       0.2264
     64  O         19.7440   30.0550   86.5760 O.2    62  TRP62      -0.2867
     65  CB        17.6540   29.2370   84.8070 C.3    62  TRP62       0.0550
     66  CG        16.7420   28.7300   83.7750 C.ar   62  TRP62       0.0003
     67  CD1       15.9480   27.6250   83.8530 C.ar   62  TRP62       0.0946
     68  CD2       16.5470   29.2790   82.4720 C.ar   62  TRP62       0.0152
     69  NE1       15.2810   27.4390   82.6660 N.ar   62  TRP62      -0.2442
     70  CE2       15.6250   28.4440   81.8000 C.ar   62  TRP62       0.0810
     71  CE3       17.0590   30.3990   81.8000 C.ar   62  TRP62       0.0012
     72  CZ2       15.2080   28.6960   80.4910 C.ar   62  TRP62       0.0191
     73  CZ3       16.6440   30.6440   80.5130 C.ar   62  TRP62       0.0001
     74  CH2       15.7270   29.7960   79.8700 C.ar   62  TRP62       0.0015
     75  N         18.3890   35.9780   86.5990 N.3    65  GLU65      -0.1245
     76  CA        17.5030   36.6690   85.6790 C.3    65  GLU65       0.1567
     77  C         17.6540   38.2000   85.6570 C.2    65  GLU65       0.2260
     78  O         17.7840   38.8450   86.6900 O.2    65  GLU65      -0.2867
     79  CB        16.0770   36.2630   86.0430 C.3    65  GLU65       0.0388
     80  CG        15.0180   36.5870   85.0460 C.3    65  GLU65       0.1160
     81  CD        13.6370   36.2060   85.5630 C.2    65  GLU65       0.3649
     82  OE1       13.3600   35.0010   85.7510 O.co2  65  GLU65      -0.2457
     83  OE2       12.8310   37.1190   85.7990 O.co2  65  GLU65      -0.2457
     84  N         15.9500   41.8150   84.1610 N.3    67  ARG67      -0.1245
     85  CA        14.6800   42.3050   83.6880 C.3    67  ARG67       0.1563
     86  C         14.8290   43.7500   83.2900 C.2    67  ARG67       0.2260
     87  O         15.3780   44.5500   84.0470 O.2    67  ARG67      -0.2867
     88  CB        13.6270   42.1670   84.7880 C.3    67  ARG67       0.0307
     89  CG        13.3380   40.7330   85.2100 C.3    67  ARG67       0.0489
     90  CD        11.8970   40.6330   85.6220 C.3    67  ARG67       0.2205
     91  NE        11.4630   39.2660   85.8340 N.pl3  67  ARG67      -0.0865
     92  CZ        10.2180   38.8490   85.6570 C.cat  67  ARG67       0.5346
     93  NH1        9.2830   39.7000   85.2730 N.pl3  67  ARG67       0.1354
     94  NH2        9.9070   37.5730   85.8280 N.pl3  67  ARG67       0.1354
@<TRIPOS>BOND
     1     4     3    2
     2     3     2    1
     3     1     2    1
     4     2     5    1
     5     5     6    1
     6     5     7    1
     7    18    19    1
     8     9    10    1
     9     9     8    1
    10     9    12    1
    11    10    11    2
    12    19    20    1
    13    19    22    1
    14    25    23   am
    15    20    21    2
    16    14    16   ar
    17    14    13   ar
    18    22    23    1
    19    12    13    1
    20    16    17   ar
    21    23    24    2
    22    13    15   ar
    23    26    27    1
    24    17    15   ar
    25    27    28    1
    26    27    30    1
    27    28    29    2
    28    49    48    2
    29    56    55    2
    30    46    47    1
    31    74    72   ar
    32    74    73   ar
    33    48    47    1
    34    30    31    1
    35    31    32    1
    36    53    54    1
    37    55    54    1
    38    32    33    1
    39    72    70   ar
    40    73    71   ar
    41    47    50    1
    42    54    57    1
    43    35    34    1
    44    50    52    1
    45    50    51    1
    46    33    34    2
    47    71    68   ar
    48    70    68   ar
    49    70    69   ar
    50    37    38    1
    51    34    36    1
    52    57    58    1
    53    68    66   ar
    54    39    38    1
    55    39    40    2
    56    69    67   ar
    57    38    41    1
    58    58    59    2
    59    58    60   am
    60    86    85    1
    61    86    87    2
    62    41    42    1
    63    85    84    1
    64    85    88    1
    65    66    67   ar
    66    66    65    1
    67    42    43    1
    68    62    65    1
    69    62    61    1
    70    62    63    1
    71    45    43   ar
    72    88    89    1
    73    43    44   ar
    74    80    81    1
    75    80    79    1
    76    89    90    1
    77    93    92    1
    78    63    64    2
    79    81    82   ar
    80    81    83   ar
    81    90    91    1
    82    77    76    1
    83    77    78    2
    84    92    94    1
    85    92    91    2
    86    76    79    1
    87    76    75    1
