@<TRIPOS>MOLECULE
tmp/1hldA02.pdb
 107 100 0 0 0
SMALL
GASTEIGER

@<TRIPOS>ATOM
      1  N         -0.0070   69.6530    6.0670 N.3    46  CYS46      -0.1235
      2  CA         0.0770   68.2090    6.3010 C.3    46  CYS46       0.1677
      3  C         -0.8970   67.7850    7.4130 C.2    46  CYS46       0.2270
      4  O         -1.1640   68.5460    8.3560 O.2    46  CYS46      -0.2867
      5  CB         1.5070   67.8010    6.6720 C.3    46  CYS46       0.0956
      6  SG         1.6730   66.0430    7.1310 S.3    46  CYS46      -0.0801
      7  N         -0.4050   66.0220    9.9060 N.3    48  SER48      -0.1217
      8  CA         0.2280   66.0600   11.2360 C.3    48  SER48       0.1889
      9  C          0.0590   67.4040   11.9350 C.2    48  SER48       0.2288
     10  O          0.1820   67.4930   13.1640 O.2    48  SER48      -0.2866
     11  CB         1.7110   65.7140   11.1660 C.3    48  SER48       0.2089
     12  OG         1.9010   64.4250   10.6290 O.3    48  SER48      -0.2183
     13  N         -1.9450   64.6310   18.3950 N.3    57  LEU57      -0.1245
     14  CA        -0.5000   64.6920   18.4750 C.3    57  LEU57       0.1561
     15  C         -0.1990   65.7310   19.5550 C.2    57  LEU57       0.2260
     16  O         -0.6060   66.8880   19.4420 O.2    57  LEU57      -0.2867
     17  CB         0.0400   65.1080   17.1100 C.3    57  LEU57       0.0270
     18  CG         1.5240   65.3260   16.8510 C.3    57  LEU57       0.0019
     19  CD1        2.3490   64.2200   17.4790 C.3    57  LEU57       0.0001
     20  CD2        1.7320   65.3770   15.3330 C.3    57  LEU57       0.0001
     21  N          5.5570   72.3510    9.3480 N.3    67  HIS67      -0.1241
     22  CA         6.8190   71.6200    9.2380 C.3    67  HIS67       0.1621
     23  C          7.1760   71.2430    7.8000 C.2    67  HIS67       0.2264
     24  O          8.2900   70.7960    7.5480 O.2    67  HIS67      -0.2867
     25  CB         6.7840   70.3610   10.1180 C.3    67  HIS67       0.0745
     26  CG         5.7380   69.3770    9.7060 C.ar   67  HIS67       0.0817
     27  ND1        4.4020   69.5500    9.9860 N.ar   67  HIS67      -0.2268
     28  CD2        5.8280   68.2270    8.9990 C.ar   67  HIS67       0.1154
     29  CE1        3.7100   68.5530    9.4730 C.ar   67  HIS67       0.1986
     30  NE2        4.5520   67.7350    8.8680 N.ar   67  HIS67      -0.2212
     31  N         12.1240   68.5820    9.7310 N.3    93  PHE93      -0.1241
     32  CA        11.4990   68.2190   10.9990 C.3    93  PHE93       0.1605
     33  C         12.2130   67.0320   11.6810 C.2    93  PHE93       0.2264
     34  O         12.1130   66.8420   12.8960 O.2    93  PHE93      -0.2867
     35  CB         9.9750   68.0390   10.8600 C.3    93  PHE93       0.0534
     36  CG         9.5460   66.7490   10.2170 C.ar   93  PHE93      -0.0203
     37  CD1        9.3800   65.5950   10.9820 C.ar   93  PHE93      -0.0042
     38  CD2        9.2690   66.6960    8.8540 C.ar   93  PHE93      -0.0042
     39  CE1        8.9380   64.3810   10.4030 C.ar   93  PHE93      -0.0003
     40  CE2        8.8280   65.5010    8.2570 C.ar   93  PHE93      -0.0003
     41  CZ         8.6600   64.3250    9.0380 C.ar   93  PHE93      -0.0000
     42  N         10.5310   65.0790   18.4150 N.3   116  LEU116     -0.1245
     43  CA         9.3160   64.2990   18.2110 C.3   116  LEU116      0.1561
     44  C          8.9340   63.4000   19.3860 C.2   116  LEU116      0.2260
     45  O          7.7650   63.3410   19.7340 O.2   116  LEU116     -0.2867
     46  CB         9.4080   63.4390   16.9380 C.3   116  LEU116      0.0270
     47  CG         9.1640   64.0300   15.5380 C.3   116  LEU116      0.0019
     48  CD1       10.4200   64.7170   14.9910 C.3   116  LEU116      0.0001
     49  CD2        8.7630   62.9170   14.6100 C.3   116  LEU116      0.0001
     50  N          7.7660   74.0700   16.8440 N.3   140  PHE140     -0.1227
     51  CA         7.1460   72.7760   16.5920 C.3   140  PHE140      0.1736
     52  C          8.1530   71.9970   15.7640 C.2   140  PHE140      0.2595
     53  O          8.5540   72.4480   14.6960 O.2   140  PHE140     -0.2718
     54  CB         5.8130   72.9850   15.8370 C.3   140  PHE140      0.0547
     55  CG         5.1460   71.7100   15.3850 C.ar  140  PHE140     -0.0202
     56  CD1        4.7160   70.7610   16.3160 C.ar  140  PHE140     -0.0042
     57  CD2        4.9720   71.4480   14.0320 C.ar  140  PHE140     -0.0042
     58  CE1        4.1260   69.5680   15.9050 C.ar  140  PHE140     -0.0003
     59  CE2        4.3870   70.2680   13.6150 C.ar  140  PHE140     -0.0003
     60  CZ         3.9650   69.3270   14.5500 C.ar  140  PHE140     -0.0000
     61  N          8.6440   70.8900   16.3240 N.am  141  LEU141     -0.1980
     62  CA         9.6090   70.0110   15.6720 C.3   141  LEU141      0.1596
     63  C         10.8620   70.7360   15.2000 C.2   141  LEU141      0.2287
     64  O         11.5770   70.2450   14.3220 O.2   141  LEU141     -0.2864
     65  CB         8.9580   69.3010   14.4860 C.3   141  LEU141      0.0297
     66  CG         7.6960   68.5150   14.7990 C.3   141  LEU141      0.0022
     67  CD1        7.2050   67.8520   13.5300 C.3   141  LEU141      0.0001
     68  CD2        7.9960   67.4930   15.8840 C.3   141  LEU141      0.0001
     69  N          8.1010   67.0120    3.6850 N.3   174  CYS174     -0.1235
     70  CA         7.3860   65.9780    4.4260 C.3   174  CYS174      0.1677
     71  C          6.5530   64.9990    3.5990 C.2   174  CYS174      0.2270
     72  O          6.9640   63.8720    3.3870 O.2   174  CYS174     -0.2867
     73  CB         6.5240   66.5600    5.5610 C.3   174  CYS174      0.0956
     74  SG         5.6470   65.2440    6.5300 S.3   174  CYS174     -0.0801
     75  N          2.7250   54.1710    8.3970 N.3   292  VAL292     -0.1245
     76  CA         3.1620   55.5250    8.0570 C.3   292  VAL292      0.1561
     77  C          2.3310   56.5970    8.7770 C.2   292  VAL292      0.2260
     78  O          2.8470   57.6770    9.0980 O.2   292  VAL292     -0.2867
     79  CB         3.1510   55.7590    6.5120 C.3   292  VAL292      0.0252
     80  CG1        3.6590   57.1550    6.1870 C.3   292  VAL292      0.0019
     81  CG2        3.9920   54.6890    5.8060 C.3   292  VAL292      0.0019
     82  N          0.3040   58.6020   11.7780 N.3   294  VAL294     -0.1245
     83  CA         0.6050   58.8890   13.1860 C.3   294  VAL294      0.1561
     84  C         -0.6280   58.5320   14.0260 C.2   294  VAL294      0.2260
     85  O         -1.7410   59.0060   13.7480 O.2   294  VAL294     -0.2867
     86  CB         1.0110   60.3900   13.4160 C.3   294  VAL294      0.0252
     87  CG1        1.3490   60.6580   14.9070 C.3   294  VAL294      0.0019
     88  CG2        2.1970   60.7330   12.5580 C.3   294  VAL294      0.0019
     89  N          9.6910   57.2180   10.0050 N.3   318  ILE318     -0.1231
     90  CA         9.5170   58.6480   10.0360 C.3   318  ILE318      0.1692
     91  C         10.2520   59.2590    8.8570 C.2   318  ILE318      0.2592
     92  O         11.3790   58.8750    8.5590 O.2   318  ILE318     -0.2718
     93  CB        10.0000   59.2220   11.3900 C.3   318  ILE318      0.0266
     94  CG1        8.9960   58.7860   12.4740 C.3   318  ILE318      0.0019
     95  CG2       10.1950   60.7570   11.3050 C.3   318  ILE318      0.0020
     96  CD1        9.0380   59.5420   13.7430 C.3   318  ILE318      0.0001
     97  N          9.5610   60.1250    8.1160 N.am  319  PHE319     -0.1976
     98  CA        10.1490   60.8120    6.9750 C.3   319  PHE319      0.1639
     99  C         10.6460   59.8500    5.8860 C.2   319  PHE319      0.2290
    100  O         11.6790   60.0910    5.2460 O.2   319  PHE319     -0.2864
    101  CB        11.2820   61.7450    7.4490 C.3   319  PHE319      0.0560
    102  CG        11.6970   62.7500    6.4240 C.ar  319  PHE319     -0.0200
    103  CD1       10.7480   63.6120    5.8580 C.ar  319  PHE319     -0.0042
    104  CD2       13.0090   62.8170    5.9920 C.ar  319  PHE319     -0.0042
    105  CE1       11.1030   64.5360    4.8680 C.ar  319  PHE319     -0.0003
    106  CE2       13.3750   63.7330    5.0010 C.ar  319  PHE319     -0.0003
    107  CZ        12.4310   64.5950    4.4360 C.ar  319  PHE319     -0.0000
@<TRIPOS>BOND
     1    72    71    2
     2    71    70    1
     3    69    70    1
     4    70    73    1
     5   107   105   ar
     6   107   106   ar
     7   105   103   ar
     8   106   104   ar
     9   100    99    2
    10    73    74    1
    11    81    79    1
    12   103   102   ar
    13    99    98    1
    14   104   102   ar
    15     1     2    1
    16    80    79    1
    17     2     5    1
    18     2     3    1
    19   102   101    1
    20    79    76    1
    21     5     6    1
    22    98   101    1
    23    98    97    1
    24     3     4    2
    25    24    23    2
    26    23    22    1
    27    76    75    1
    28    76    77    1
    29    97    91   am
    30    40    38   ar
    31    40    41   ar
    32    92    91    2
    33    77    78    2
    34    38    36   ar
    35    91    90    1
    36    30    28   ar
    37    30    29   ar
    38    28    26   ar
    39    41    39   ar
    40    22    21    1
    41    22    25    1
    42    29    27   ar
    43    26    27   ar
    44    26    25    1
    45    31    32    1
    46     7     8    1
    47    89    90    1
    48    90    93    1
    49    36    35    1
    50    36    37   ar
    51    39    37   ar
    52    12    11    1
    53    35    32    1
    54    32    33    1
    55    11     8    1
    56     8     9    1
    57    95    93    1
    58    93    94    1
    59    33    34    2
    60    82    83    1
    61     9    10    2
    62    94    96    1
    63    88    86    1
    64    83    86    1
    65    83    84    1
    66    86    87    1
    67    67    66    1
    68    59    57   ar
    69    59    60   ar
    70    85    84    2
    71    57    55   ar
    72    64    63    2
    73    65    66    1
    74    65    62    1
    75    60    58   ar
    76    49    47    1
    77    53    52    2
    78    66    68    1
    79    48    47    1
    80    63    62    1
    81    20    18    1
    82    55    54    1
    83    55    56   ar
    84    47    46    1
    85    62    61    1
    86    52    61   am
    87    52    51    1
    88    54    51    1
    89    58    56   ar
    90    51    50    1
    91    18    17    1
    92    18    19    1
    93    46    43    1
    94    17    14    1
    95    43    42    1
    96    43    44    1
    97    13    14    1
    98    14    15    1
    99    44    45    2
   100    16    15    2
