@<TRIPOS>MOLECULE
tmp/1hlfA01.pdb
 150 142 0 0 0
SMALL
GASTEIGER

@<TRIPOS>ATOM
      1  N         28.9820   23.7710   30.3300 N.3   123  GLY123     -0.1210
      2  CA        29.1930   22.4960   29.6690 C.3   123  GLY123      0.1956
      3  C         29.9870   21.4170   30.3730 C.2   123  GLY123      0.2611
      4  O         29.6180   20.2410   30.3250 O.2   123  GLY123     -0.2717
      5  N         31.0850   21.8030   31.0060 N.am  124  LEU124     -0.1979
      6  CA        31.9380   20.8430   31.7150 C.3   124  LEU124      0.1596
      7  C         31.1490   20.2430   32.8960 C.2   124  LEU124      0.2287
      8  O         31.1600   19.0360   33.1210 O.2   124  LEU124     -0.2864
      9  CB        33.2050   21.5600   32.2050 C.3   124  LEU124      0.0297
     10  CG        34.2120   20.7220   32.9940 C.3   124  LEU124      0.0022
     11  CD1       35.6360   21.1640   32.7090 C.3   124  LEU124      0.0001
     12  CD2       33.9030   20.8980   34.4760 C.3   124  LEU124      0.0001
     13  N         28.1200   18.0020   31.6760 N.3   127  LEU127     -0.1245
     14  CA        28.5610   16.7190   31.1090 C.3   127  LEU127      0.1561
     15  C         28.6920   15.6950   32.2240 C.2   127  LEU127      0.2260
     16  O         28.2380   14.5490   32.1100 O.2   127  LEU127     -0.2867
     17  CB        29.9100   16.8760   30.4070 C.3   127  LEU127      0.0270
     18  CG        30.3940   15.6410   29.6370 C.3   127  LEU127      0.0019
     19  CD1       29.6280   15.5260   28.3100 C.3   127  LEU127      0.0001
     20  CD2       31.8970   15.7430   29.3750 C.3   127  LEU127      0.0001
     21  N         34.2910   30.1570   33.1570 N.3   271  ASP271     -0.1225
     22  CA        34.0740   29.1260   32.1520 C.3   271  ASP271      0.1805
     23  C         35.1650   29.3470   31.1080 C.2   271  ASP271      0.2597
     24  O         35.3520   30.4570   30.6210 O.2   271  ASP271     -0.2718
     25  CB        32.6890   29.2720   31.5190 C.3   271  ASP271      0.1424
     26  CG        32.3460   28.1170   30.5860 C.2   271  ASP271      0.3668
     27  OD1       31.7540   27.1120   31.0530 O.co2 271  ASP271     -0.2456
     28  OD2       32.6780   28.2170   29.3810 O.co2 271  ASP271     -0.2456
     29  N         35.9110   28.3010   30.7830 N.am  272  ASN272     -0.1974
     30  CA        36.9820   28.4170   29.7980 C.3   272  ASN272      0.1688
     31  C         37.9600   29.5330   30.1310 C.2   272  ASN272      0.2292
     32  O         38.3880   30.2760   29.2550 O.2   272  ASN272     -0.2864
     33  CB        36.4000   28.6640   28.4050 C.3   272  ASN272      0.1181
     34  CG        36.2660   27.3940   27.5990 C.2   272  ASN272      0.2629
     35  OD1       37.2430   26.8880   27.0500 O.2   272  ASN272     -0.2716
     36  ND2       35.0470   26.8680   27.5230 N.am  272  ASN272     -0.0877
     37  N         39.1430   17.1120   33.2720 N.3   327  ASP327     -0.1239
     38  CA        40.0180   18.2480   32.9980 C.3   327  ASP327      0.1674
     39  C         41.2200   18.1670   33.9200 C.2   327  ASP327      0.2266
     40  O         41.4650   17.1160   34.5130 O.2   327  ASP327     -0.2867
     41  CB        39.2960   19.5760   33.1960 C.3   327  ASP327      0.1410
     42  CG        39.7600   20.6340   32.2180 C.2   327  ASP327      0.3668
     43  OD1       39.0700   21.6600   32.0960 O.co2 327  ASP327     -0.2456
     44  OD2       40.8060   20.4420   31.5710 O.co2 327  ASP327     -0.2456
     45  N         41.5760   20.0920   36.6410 N.3   329  HIS329     -0.1241
     46  CA        41.2050   20.5470   37.9860 C.3   329  HIS329      0.1621
     47  C         41.5900   19.5630   39.0810 C.2   329  HIS329      0.2264
     48  O         42.0390   19.9790   40.1580 O.2   329  HIS329     -0.2867
     49  CB        39.7280   20.9050   38.0330 C.3   329  HIS329      0.0745
     50  CG        39.3050   21.8060   36.9220 C.ar  329  HIS329      0.0817
     51  ND1       38.0220   21.8140   36.4130 N.ar  329  HIS329     -0.2268
     52  CD2       40.0120   22.6780   36.1670 C.ar  329  HIS329      0.1154
     53  CE1       37.9560   22.6660   35.4010 C.ar  329  HIS329      0.1986
     54  NE2       39.1570   23.2020   35.2280 N.ar  329  HIS329     -0.2212
     55  N         39.2160   19.3540   27.8650 N.3   365  HIS365     -0.1226
     56  CA        37.9830   20.0300   27.4520 C.3   365  HIS365      0.1752
     57  C         38.1320   21.3750   26.7540 C.2   365  HIS365      0.2596
     58  O         37.1450   22.0480   26.5180 O.2   365  HIS365     -0.2718
     59  CB        37.0640   20.2380   28.6630 C.3   365  HIS365      0.0759
     60  CG        36.6090   18.9730   29.3040 C.ar  365  HIS365      0.0818
     61  ND1       35.4510   18.3220   28.9320 N.ar  365  HIS365     -0.2268
     62  CD2       37.1660   18.2170   30.2820 C.ar  365  HIS365      0.1154
     63  CE1       35.3130   17.2260   29.6560 C.ar  365  HIS365      0.1986
     64  NE2       36.3380   17.1370   30.4800 N.ar  365  HIS365     -0.2212
     65  N         39.3500   21.7880   26.4290 N.am  366  THR366     -0.1953
     66  CA        39.5340   23.0730   25.7550 C.3   366  THR366      0.1897
     67  C         40.9560   23.2610   25.2660 C.2   366  THR366      0.2313
     68  O         41.8830   22.6870   25.8260 O.2   366  THR366     -0.2863
     69  CB        39.1850   24.2660   26.6850 C.3   366  THR366      0.1794
     70  OG1       39.3570   25.5000   25.9760 O.3   366  THR366     -0.2208
     71  CG2       40.0840   24.2680   27.9170 C.3   366  THR366      0.0378
     72  N         42.6250   29.2120   29.1790 N.3   371  ALA371     -0.1245
     73  CA        41.8630   28.2390   29.9520 C.3   371  ALA371      0.1562
     74  C         42.7890   27.2070   30.5890 C.2   371  ALA371      0.2260
     75  O         42.3770   26.4620   31.4790 O.2   371  ALA371     -0.2867
     76  CB        40.8480   27.5430   29.0520 C.3   371  ALA371      0.0290
     77  N         37.0590   15.5830   23.3930 N.3   443  VAL443     -0.1245
     78  CA        35.6220   15.4270   23.5370 C.3   443  VAL443      0.1561
     79  C         34.7750   15.4870   22.2590 C.2   443  VAL443      0.2260
     80  O         33.5430   15.5210   22.3000 O.2   443  VAL443     -0.2867
     81  CB        35.1200   16.4510   24.5850 C.3   443  VAL443      0.0252
     82  CG1       35.6610   16.0700   25.9670 C.3   443  VAL443      0.0019
     83  CG2       35.5900   17.8530   24.2360 C.3   443  VAL443      0.0019
     84  N         31.3840   13.7320   23.0890 N.3   472  ASN472     -0.1240
     85  CA        30.4240   14.0050   24.1460 C.3   472  ASN472      0.1653
     86  C         29.0160   13.5890   23.7640 C.2   472  ASN472      0.2266
     87  O         28.7390   13.2540   22.6180 O.2   472  ASN472     -0.2867
     88  CB        30.4250   15.5000   24.4860 C.3   472  ASN472      0.1155
     89  CG        31.6250   15.9270   25.3470 C.2   472  ASN472      0.2627
     90  OD1       31.8740   17.1160   25.5190 O.2   472  ASN472     -0.2716
     91  ND2       32.3540   14.9640   25.8930 N.am  472  ASN472     -0.0877
     92  N         34.5960   33.7510   21.9840 N.3   561  TYR561     -0.1227
     93  CA        34.7230   32.6520   21.0490 C.3   561  TYR561      0.1736
     94  C         33.3730   32.0650   20.5990 C.2   561  TYR561      0.2595
     95  O         33.2620   31.5470   19.4800 O.2   561  TYR561     -0.2718
     96  CB        35.6720   31.5540   21.6060 C.3   561  TYR561      0.0548
     97  CG        35.0820   30.4240   22.4470 C.ar  561  TYR561     -0.0200
     98  CD1       34.5170   29.3060   21.8540 C.ar  561  TYR561     -0.0009
     99  CD2       35.1270   30.4660   23.8430 C.ar  561  TYR561     -0.0009
    100  CE1       34.0130   28.2660   22.6180 C.ar  561  TYR561      0.0417
    101  CE2       34.6220   29.4190   24.6250 C.ar  561  TYR561      0.0417
    102  CZ        34.0600   28.3270   24.0050 C.ar  561  TYR561      0.1957
    103  OH        33.5170   27.3010   24.7420 O.3   561  TYR561     -0.2866
    104  N         32.3500   32.1730   21.4410 N.am  562  LYS562     -0.1980
    105  CA        31.0250   31.6580   21.1130 C.3   562  LYS562      0.1596
    106  C         30.3580   32.6030   20.1080 C.2   562  LYS562      0.2287
    107  O         29.3630   32.2620   19.4640 O.2   562  LYS562     -0.2864
    108  CB        30.1640   31.5450   22.3790 C.3   562  LYS562      0.0298
    109  CG        30.8500   30.9110   23.5720 C.3   562  LYS562      0.0038
    110  CD        30.4020   29.4750   23.7810 C.3   562  LYS562      0.0206
    111  CE        30.4510   29.0480   25.2490 C.3   562  LYS562      0.1093
    112  NZ        30.4980   27.5660   25.3510 N.3   562  LYS562     -0.1314
    113  N         37.5890   26.4300   18.1260 N.3   659  THR659     -0.1203
    114  CA        37.5480   26.9280   19.5040 C.3   659  THR659      0.1994
    115  C         36.5830   26.2100   20.4630 C.2   659  THR659      0.2618
    116  O         36.8350   26.1610   21.6660 O.2   659  THR659     -0.2717
    117  CB        37.2250   28.4400   19.5390 C.3   659  THR659      0.1784
    118  OG1       35.8630   28.6440   19.1540 O.3   659  THR659     -0.2211
    119  CG2       38.1190   29.1980   18.5880 C.3   659  THR659      0.0376
    120  N         35.4800   25.6720   19.9490 N.am  660  GLU660     -0.1965
    121  CA        34.5180   24.9550   20.7890 C.3   660  GLU660      0.1733
    122  C         34.8650   23.4700   20.7860 C.2   660  GLU660      0.2616
    123  O         34.5760   22.7650   19.8260 O.2   660  GLU660     -0.2715
    124  CB        33.0950   25.1640   20.2670 C.3   660  GLU660      0.0429
    125  CG        32.0000   24.6190   21.1820 C.3   660  GLU660      0.1163
    126  CD        31.7350   25.5010   22.4050 C.2   660  GLU660      0.3649
    127  OE1       32.2870   25.2030   23.4890 O.co2 660  GLU660     -0.2457
    128  OE2       30.9760   26.4840   22.2860 O.co2 660  GLU660     -0.2457
    129  N         35.4950   23.0060   21.8650 N.am  661  ALA661     -0.1963
    130  CA        35.9240   21.6110   22.0030 C.3   661  ALA661      0.1728
    131  C         34.9020   20.6040   21.4770 C.2   661  ALA661      0.2617
    132  O         35.2480   19.6760   20.7330 O.2   661  ALA661     -0.2715
    133  CB        36.2450   21.3060   23.4730 C.3   661  ALA661      0.0334
    134  N         33.6530   20.7770   21.8870 N.am  662  SER662     -0.1936
    135  CA        32.5950   19.8890   21.4540 C.3   662  SER662      0.2055
    136  C         31.2620   20.5940   21.4410 C.2   662  SER662      0.2644
    137  O         30.6300   20.7440   20.3960 O.2   662  SER662     -0.2714
    138  CB        32.5180   18.6730   22.3760 C.3   662  SER662      0.2130
    139  OG        31.3070   17.9630   22.1500 O.3   662  SER662     -0.2179
    140  N         30.8540   21.0460   22.6240 N.am  663  GLY663     -0.1939
    141  CA        29.5680   21.6930   22.7830 C.3   663  GLY663      0.2014
    142  C         28.5860   20.5840   23.1090 C.2   663  GLY663      0.2639
    143  O         28.8340   19.4340   22.7280 O.2   663  GLY663     -0.2714
    144  N         27.5170   20.8900   23.8410 N.am  664  THR664     -0.1950
    145  CA        26.5220   19.8600   24.1550 C.3   664  THR664      0.1897
    146  C         25.1270   20.4200   23.9760 C.2   664  THR664      0.2313
    147  O         24.1600   19.6730   23.7790 O.2   664  THR664     -0.2863
    148  CB        26.6820   19.3060   25.5810 C.3   664  THR664      0.1794
    149  OG1       27.0060   20.3790   26.4650 O.3   664  THR664     -0.2208
    150  CG2       27.7810   18.2470   25.6150 C.3   664  THR664      0.0378
@<TRIPOS>BOND
     1   113   114    1
     2   119   117    1
     3   118   117    1
     4   107   106    2
     5    95    94    2
     6   114   117    1
     7   114   115    1
     8   123   122    2
     9   120   115   am
    10   120   121    1
    11   106   105    1
    12   124   121    1
    13   124   125    1
    14   137   136    2
    15   115   116    2
    16    94    93    1
    17    94   104   am
    18   132   131    2
    19   122   121    1
    20   122   129   am
    21    93    96    1
    22    93    92    1
    23   105   104    1
    24   105   108    1
    25   125   126    1
    26   136   135    1
    27   136   140   am
    28   135   134    1
    29   135   138    1
    30   131   134   am
    31   131   130    1
    32    96    97    1
    33    98    97   ar
    34    98   100   ar
    35   129   130    1
    36   130   133    1
    37   139   138    1
    38    79    80    2
    39    79    78    1
    40   128   126   ar
    41   108   109    1
    42   126   127   ar
    43    97    99   ar
    44   100   102   ar
    45    87    86    2
    46   140   141    1
    47   143   142    2
    48   141   142    1
    49    84    85    1
    50   142   144   am
    51    77    78    1
    52    78    81    1
    53   109   110    1
    54    86    85    1
    55   147   146    2
    56   110   111    1
    57   144   145    1
    58    99   101   ar
    59   146   145    1
    60   102   101   ar
    61   102   103    1
    62    85    88    1
    63   145   148    1
    64    83    81    1
    65    88    89    1
    66    81    82    1
    67   111   112    1
    68    67    66    1
    69    67    68    2
    70    89    90    2
    71    89    91   am
    72   148   150    1
    73   148   149    1
    74    66    65    1
    75    66    69    1
    76    70    69    1
    77    65    57   am
    78    58    57    2
    79    69    71    1
    80    57    56    1
    81    35    34    2
    82    56    55    1
    83    56    59    1
    84    36    34   am
    85    34    33    1
    86    19    18    1
    87    33    30    1
    88    59    60    1
    89    61    60   ar
    90    61    63   ar
    91    76    73    1
    92    72    73    1
    93    32    31    2
    94    60    62   ar
    95    20    18    1
    96    28    26   ar
    97    18    17    1
    98    63    64   ar
    99     2     1    1
   100     2     3    1
   101    30    31    1
   102    30    29    1
   103    73    74    1
   104    62    64   ar
   105     4     3    2
   106     3     5   am
   107    17    14    1
   108    26    27   ar
   109    26    25    1
   110    74    75    2
   111    24    23    2
   112    29    23   am
   113     5     6    1
   114    23    22    1
   115    14    13    1
   116    14    15    1
   117    25    22    1
   118    44    42   ar
   119     6     9    1
   120     6     7    1
   121    43    42   ar
   122    16    15    2
   123    22    21    1
   124     9    10    1
   125    42    41    1
   126    11    10    1
   127     7     8    2
   128    10    12    1
   129    38    41    1
   130    38    37    1
   131    38    39    1
   132    39    40    2
   133    54    53   ar
   134    54    52   ar
   135    53    51   ar
   136    52    50   ar
   137    51    50   ar
   138    45    46    1
   139    50    49    1
   140    46    49    1
   141    46    47    1
   142    47    48    2
