@<TRIPOS>MOLECULE
tmp/1hlkA00.pdb
 121 115 0 0 0
SMALL
GASTEIGER

@<TRIPOS>ATOM
      1  N        -12.9840  -22.8650   10.9480 N.3    26  ILE26      -0.1245
      2  CA       -11.6590  -22.3260   11.2270 C.3    26  ILE26       0.1561
      3  C        -10.7340  -22.6970   10.0780 C.2    26  ILE26       0.2260
      4  O        -10.5590  -23.8770    9.7800 O.2    26  ILE26      -0.2867
      5  CB       -11.0690  -22.8940   12.5400 C.3    26  ILE26       0.0252
      6  CG1      -11.9300  -22.4630   13.7260 C.3    26  ILE26       0.0019
      7  CG2       -9.6380  -22.4040   12.7260 C.3    26  ILE26       0.0019
      8  CD1      -11.4040  -22.9370   15.0630 C.3    26  ILE26       0.0001
      9  N         -8.8300  -26.0840    9.7350 N.3    29  TRP29      -0.1241
     10  CA        -9.4230  -27.1740   10.5040 C.3    29  TRP29       0.1605
     11  C        -10.8840  -27.4530   10.1530 C.2    29  TRP29       0.2264
     12  O        -11.4520  -28.4400   10.6090 O.2    29  TRP29      -0.2867
     13  CB        -9.3020  -26.8990   12.0110 C.3    29  TRP29       0.0550
     14  CG        -7.9150  -26.5320   12.4340 C.ar   29  TRP29       0.0003
     15  CD1       -7.3220  -25.3050   12.3210 C.ar   29  TRP29       0.0946
     16  CD2       -6.9080  -27.4170   12.9430 C.ar   29  TRP29       0.0152
     17  NE1       -6.0110  -25.3720   12.7250 N.ar   29  TRP29      -0.2442
     18  CE2       -5.7280  -26.6550   13.1100 C.ar   29  TRP29       0.0810
     19  CE3       -6.8860  -28.7780   13.2700 C.ar   29  TRP29       0.0012
     20  CZ2       -4.5380  -27.2110   13.5910 C.ar   29  TRP29       0.0191
     21  CZ3       -5.7000  -29.3280   13.7490 C.ar   29  TRP29       0.0001
     22  CH2       -4.5440  -28.5450   13.9040 C.ar   29  TRP29       0.0015
     23  N        -15.5410  -26.9610   13.2910 N.3    32  VAL32      -0.1245
     24  CA       -15.0580  -27.4000   14.5890 C.3    32  VAL32       0.1561
     25  C        -15.8670  -26.8420   15.7530 C.2    32  VAL32       0.2260
     26  O        -16.0130  -25.6300   15.8970 O.2    32  VAL32      -0.2867
     27  CB       -13.5710  -27.0360   14.7800 C.3    32  VAL32       0.0252
     28  CG1      -12.7380  -27.7040   13.6990 C.3    32  VAL32       0.0019
     29  CG2      -13.3900  -25.5380   14.7340 C.3    32  VAL32       0.0019
     30  N         -7.1960  -17.1280   22.4430 N.3    81  HIS81      -0.1241
     31  CA        -7.6780  -17.5650   21.1270 C.3    81  HIS81       0.1621
     32  C         -9.1120  -17.2090   20.7890 C.2    81  HIS81       0.2264
     33  O         -9.9100  -16.8630   21.6640 O.2    81  HIS81      -0.2867
     34  CB        -7.4620  -19.0660   20.9340 C.3    81  HIS81       0.0745
     35  CG        -6.0400  -19.4350   20.6440 C.ar   81  HIS81       0.0817
     36  ND1       -5.5740  -20.7290   20.7280 N.ar   81  HIS81      -0.2268
     37  CD2       -4.9850  -18.6780   20.2540 C.ar   81  HIS81       0.1154
     38  CE1       -4.2920  -20.7540   20.4040 C.ar   81  HIS81       0.1986
     39  NE2       -3.9100  -19.5220   20.1130 N.ar   81  HIS81      -0.2212
     40  N        -11.6880  -18.9410   19.9670 N.3    83  ASP83      -0.1239
     41  CA       -12.7280  -19.7140   20.6200 C.3    83  ASP83       0.1674
     42  C        -12.8480  -19.4740   22.1310 C.2    83  ASP83       0.2266
     43  O        -13.3880  -20.3000   22.8680 O.2    83  ASP83      -0.2867
     44  CB       -12.5440  -21.2040   20.2980 C.3    83  ASP83       0.1410
     45  CG       -11.1180  -21.6870   20.5090 C.2    83  ASP83       0.3668
     46  OD1      -10.1930  -21.0830   19.9270 O.co2  83  ASP83      -0.2456
     47  OD2      -10.9270  -22.6860   21.2400 O.co2  83  ASP83      -0.2456
     48  N         -1.7810  -25.8900   26.5120 N.3   142  HIS142     -0.1241
     49  CA        -2.2550  -25.6810   25.1510 C.3   142  HIS142      0.1621
     50  C         -1.7870  -24.3110   24.6990 C.2   142  HIS142      0.2264
     51  O         -1.4270  -24.1040   23.5490 O.2   142  HIS142     -0.2867
     52  CB        -3.7810  -25.7090   25.1020 C.3   142  HIS142      0.0745
     53  CG        -4.3440  -25.0770   23.8710 C.ar  142  HIS142      0.0817
     54  ND1       -4.1870  -25.6210   22.6150 N.ar  142  HIS142     -0.2268
     55  CD2       -4.9740  -23.8910   23.6920 C.ar  142  HIS142      0.1154
     56  CE1       -4.6920  -24.7980   21.7160 C.ar  142  HIS142      0.1986
     57  NE2       -5.1750  -23.7400   22.3430 N.ar  142  HIS142     -0.2212
     58  N         -8.9680  -25.8950   26.6060 N.3   161  CYS161     -0.1235
     59  CA        -8.2590  -26.6950   25.6350 C.3   161  CYS161      0.1677
     60  C         -7.0160  -27.3870   26.1630 C.2   161  CYS161      0.2270
     61  O         -6.3430  -28.1120   25.4220 O.2   161  CYS161     -0.2867
     62  CB        -7.9340  -25.8340   24.4110 C.3   161  CYS161      0.0956
     63  SG        -9.4300  -25.1300   23.6510 S.3   161  CYS161     -0.0801
     64  N         -8.0970  -32.5540   26.5190 N.3   164  LYS164     -0.1231
     65  CA        -8.6960  -33.1680   25.3300 C.3   164  LYS164      0.1693
     66  C         -9.7990  -34.1590   25.7450 C.2   164  LYS164      0.2592
     67  O         -9.8210  -34.6250   26.8930 O.2   164  LYS164     -0.2718
     68  CB        -7.6450  -33.9350   24.5320 C.3   164  LYS164      0.0285
     69  CG        -7.0100  -33.2120   23.3700 C.3   164  LYS164      0.0035
     70  CD        -6.0900  -32.1160   23.7750 C.3   164  LYS164      0.0206
     71  CE        -5.3550  -31.5930   22.5450 C.3   164  LYS164      0.1093
     72  NZ        -6.2700  -31.0950   21.4700 N.3   164  LYS164     -0.1314
     73  N        -10.7010  -34.4900   24.8140 N.am  165  ASP165     -0.1974
     74  CA       -11.7740  -35.4370   25.1110 C.3   165  ASP165      0.1709
     75  C        -11.3330  -36.8640   24.7950 C.2   165  ASP165      0.2293
     76  O        -10.4600  -37.0800   23.9510 O.2   165  ASP165     -0.2864
     77  CB       -13.0800  -35.0830   24.3620 C.3   165  ASP165      0.1436
     78  CG       -13.0070  -35.3080   22.8570 C.2   165  ASP165      0.3671
     79  OD1      -12.1620  -34.6910   22.1780 O.co2 165  ASP165     -0.2456
     80  OD2      -13.8250  -36.0950   22.3440 O.co2 165  ASP165     -0.2456
     81  N        -10.2050  -38.3420   21.3850 N.3   168  ALA168     -0.1245
     82  CA        -9.1500  -37.6520   20.6610 C.3   168  ALA168      0.1562
     83  C         -7.8700  -38.4780   20.6490 C.2   168  ALA168      0.2260
     84  O         -7.4740  -39.0580   21.6600 O.2   168  ALA168     -0.2867
     85  CB        -8.8920  -36.2890   21.2830 C.3   168  ALA168      0.0290
     86  N         -5.2690  -37.1150   18.5100 N.3   170  SER170     -0.1202
     87  CA        -4.3450  -36.0830   18.0470 C.3   170  SER170      0.2020
     88  C         -4.0650  -35.0650   19.1550 C.2   170  SER170      0.2619
     89  O         -4.8840  -34.8660   20.0500 O.2   170  SER170     -0.2717
     90  CB        -4.9350  -35.3660   16.8280 C.3   170  SER170      0.2103
     91  OG        -4.2040  -34.1930   16.5170 O.3   170  SER170     -0.2182
     92  N         -2.9070  -34.4190   19.0930 N.am  171  ILE171     -0.1965
     93  CA        -2.5590  -33.4340   20.0980 C.3   171  ILE171      0.1727
     94  C         -3.1790  -32.0910   19.7260 C.2   171  ILE171      0.2617
     95  O         -3.2870  -31.1880   20.5640 O.2   171  ILE171     -0.2715
     96  CB        -1.0280  -33.3020   20.2430 C.3   171  ILE171      0.0290
     97  CG1       -0.7000  -32.2140   21.2630 C.3   171  ILE171      0.0022
     98  CG2       -0.3920  -33.0280   18.8940 C.3   171  ILE171      0.0023
     99  CD1        0.7760  -32.0490   21.5430 C.3   171  ILE171      0.0001
    100  N         -3.5960  -31.9770   18.4640 N.am  172  GLY172     -0.1940
    101  CA        -4.2310  -30.7610   17.9720 C.3   172  GLY172      0.2014
    102  C         -3.3480  -29.5770   17.6010 C.2   172  GLY172      0.2638
    103  O         -2.1800  -29.7260   17.2260 O.2   172  GLY172     -0.2714
    104  N         -3.9310  -28.3860   17.7100 N.am  173  ASN173     -0.1972
    105  CA        -3.2520  -27.1330   17.3910 C.3   173  ASN173      0.1688
    106  C         -2.2270  -26.7100   18.4470 C.2   173  ASN173      0.2292
    107  O         -2.5740  -26.0450   19.4240 O.2   173  ASN173     -0.2864
    108  CB        -4.2920  -26.0190   17.2170 C.3   173  ASN173      0.1181
    109  CG        -3.6600  -24.6670   16.9290 C.2   173  ASN173      0.2629
    110  OD1       -2.9300  -24.5060   15.9460 O.2   173  ASN173     -0.2716
    111  ND2       -3.9380  -23.6860   17.7850 N.am  173  ASN173     -0.0877
    112  N        -12.9350  -28.7640   23.6140 N.3   203  HIS203     -0.1241
    113  CA       -13.4920  -29.3450   22.3880 C.3   203  HIS203      0.1621
    114  C        -13.8100  -30.7990   22.6730 C.2   203  HIS203      0.2264
    115  O        -12.9570  -31.5240   23.1740 O.2   203  HIS203     -0.2867
    116  CB       -12.4820  -29.2770   21.2320 C.3   203  HIS203      0.0745
    117  CG       -12.1310  -27.8820   20.8110 C.ar  203  HIS203      0.0817
    118  ND1      -13.0030  -27.0720   20.1150 N.ar  203  HIS203     -0.2268
    119  CD2      -11.0190  -27.1410   21.0240 C.ar  203  HIS203      0.1154
    120  CE1      -12.4440  -25.8920   19.9150 C.ar  203  HIS203      0.1986
    121  NE2      -11.2400  -25.9080   20.4590 N.ar  203  HIS203     -0.2212
@<TRIPOS>BOND
     1     9    10    1
     2     4     3    2
     3     3     2    1
     4    11    10    1
     5    11    12    2
     6    10    13    1
     7     1     2    1
     8     2     5    1
     9    13    14    1
    10    15    14   ar
    11    15    17   ar
    12    14    16   ar
    13     5     7    1
    14     5     6    1
    15    17    18   ar
    16    16    18   ar
    17    16    19   ar
    18    18    20   ar
    19    19    21   ar
    20    23    24    1
    21    20    22   ar
    22    28    27    1
    23     6     8    1
    24    21    22   ar
    25    24    27    1
    26    24    25    1
    27    29    27    1
    28    25    26    2
    29   110   109    2
    30    91    90    1
    31    90    87    1
    32   109   108    1
    33   109   111   am
    34   108   105    1
    35   103   102    2
    36   105   104    1
    37   105   106    1
    38   102   104   am
    39   102   101    1
    40   101   100    1
    41    87    86    1
    42    87    88    1
    43   106   107    2
    44   100    94   am
    45    98    96    1
    46    92    88   am
    47    92    93    1
    48    88    89    2
    49    94    93    1
    50    94    95    2
    51   120   118   ar
    52   120   121   ar
    53    46    45   ar
    54    40    41    1
    55    93    96    1
    56    39    37   ar
    57    39    38   ar
    58   118   117   ar
    59    96    97    1
    60    37    35   ar
    61    44    45    1
    62    44    41    1
    63    38    36   ar
    64   121   119   ar
    65    45    47   ar
    66    41    42    1
    67    35    36   ar
    68    35    34    1
    69    83    82    1
    70    83    84    2
    71    82    85    1
    72    82    81    1
    73    32    31    1
    74    32    33    2
    75   117   119   ar
    76   117   116    1
    77    34    31    1
    78    31    30    1
    79   116   113    1
    80    97    99    1
    81    72    71    1
    82    56    57   ar
    83    56    54   ar
    84    42    43    2
    85    79    78   ar
    86    57    55   ar
    87    80    78   ar
    88   113   114    1
    89   113   112    1
    90    71    70    1
    91    54    53   ar
    92   114   115    2
    93    78    77    1
    94    69    70    1
    95    69    68    1
    96    51    50    2
    97    63    62    1
    98    55    53   ar
    99    53    52    1
   100    76    75    2
   101    77    74    1
   102    62    59    1
   103    68    65    1
   104    50    49    1
   105    75    74    1
   106    73    74    1
   107    73    66   am
   108    52    49    1
   109    49    48    1
   110    65    66    1
   111    65    64    1
   112    61    60    2
   113    59    60    1
   114    59    58    1
   115    66    67    2
