@<TRIPOS>MOLECULE
tmp/1hlmA00.pdb
 241 233 0 0 0
SMALL
GASTEIGER

@<TRIPOS>ATOM
      1  N         12.4010   35.8990    5.3800 N.3    39  PHE39      -0.1298
      2  CA        13.3400   36.9150    5.0010 C.3    39  PHE39       0.1290
      3  C         12.7250   38.2490    4.6250 C.3    39  PHE39       0.2013
      4  O         13.2390   39.2400    5.1790 O.3    39  PHE39      -0.2188
      5  CB        14.2020   36.4230    3.8610 C.3    39  PHE39       0.0480
      6  CG        15.2760   35.4320    4.3300 C.ar   39  PHE39      -0.0206
      7  CD1       16.1990   35.8180    5.2890 C.ar   39  PHE39      -0.0042
      8  CD2       15.3550   34.1480    3.7940 C.ar   39  PHE39      -0.0042
      9  CE1       17.1930   34.9310    5.6990 C.ar   39  PHE39      -0.0003
     10  CE2       16.3520   33.2560    4.2070 C.ar   39  PHE39      -0.0003
     11  CZ        17.2670   33.6520    5.1590 C.ar   39  PHE39      -0.0000
     12  N         12.5590   40.3050    7.8260 N.3    42  ILE42      -0.1245
     13  CA        13.8180   40.7470    8.4750 C.3    42  ILE42       0.1561
     14  C         14.2460   42.0890    7.8700 C.2    42  ILE42       0.2260
     15  O         14.5580   43.0860    8.5400 O.2    42  ILE42      -0.2867
     16  CB        14.9380   39.6910    8.2520 C.3    42  ILE42       0.0252
     17  CG1       14.4930   38.3720    8.8540 C.3    42  ILE42       0.0019
     18  CG2       16.2670   40.1540    8.8650 C.3    42  ILE42       0.0019
     19  CD1       15.3500   37.1910    8.4000 C.3    42  ILE42       0.0001
     20  N         20.4290   44.9770    6.4640 N.3    49  ALA49      -0.1245
     21  CA        20.1150   43.7390    5.7640 C.3    49  ALA49       0.1562
     22  C         20.2580   43.5490    4.2410 C.2    49  ALA49       0.2260
     23  O         21.1550   42.8780    3.7210 O.2    49  ALA49      -0.2867
     24  CB        18.6860   43.4190    6.1900 C.3    49  ALA49       0.0290
     25  N         23.8070   43.3960    2.5140 N.3    52  LYS52      -0.1231
     26  CA        24.8870   42.4310    2.7000 C.3    52  LYS52       0.1693
     27  C         24.7160   41.0480    2.0720 C.2    52  LYS52       0.2592
     28  O         25.5090   40.1310    2.3020 O.2    52  LYS52      -0.2718
     29  CB        25.1490   42.3060    4.1940 C.3    52  LYS52       0.0285
     30  CG        26.0450   43.4540    4.6480 C.3    52  LYS52       0.0035
     31  CD        25.7260   43.8630    6.0870 C.3    52  LYS52       0.0206
     32  CE        25.9440   42.7730    7.1080 C.3    52  LYS52       0.1093
     33  NZ        27.3500   42.4360    7.1570 N.3    52  LYS52      -0.1314
     34  N         23.6700   40.8840    1.2700 N.am   53  PHE53      -0.1963
     35  CA        23.4150   39.6520    0.5480 C.3    53  PHE53       0.1756
     36  C         23.7590   39.9240   -0.9210 C.2    53  PHE53       0.2461
     37  O         22.9510   40.5300   -1.6480 O.2    53  PHE53      -0.2730
     38  CB        21.9340   39.2490    0.6470 C.3    53  PHE53       0.0574
     39  CG        21.4020   38.7280    1.9840 C.ar   53  PHE53      -0.0200
     40  CD1       20.8760   39.6090    2.9260 C.ar   53  PHE53      -0.0042
     41  CD2       21.3910   37.3570    2.2530 C.ar   53  PHE53      -0.0042
     42  CE1       20.3440   39.1180    4.1310 C.ar   53  PHE53      -0.0003
     43  CE2       20.8590   36.8620    3.4520 C.ar   53  PHE53      -0.0003
     44  CZ        20.3310   37.7430    4.3940 C.ar   53  PHE53      -0.0000
     45  N         24.9160   39.5180   -1.4580 N.am   54  PRO54      -0.2716
     46  CA        25.3450   39.7520   -2.8500 C.3    54  PRO54       0.1536
     47  C         24.3570   39.7260   -4.0270 C.2    54  PRO54       0.2598
     48  O         24.4600   40.5490   -4.9410 O.2    54  PRO54      -0.2715
     49  CB        26.4870   38.7500   -3.0260 C.3    54  PRO54       0.0310
     50  CG        27.1520   38.8570   -1.6870 C.3    54  PRO54       0.0237
     51  CD        25.9630   38.8280   -0.7230 C.3    54  PRO54       0.0939
     52  N         23.3560   38.8450   -3.9840 N.am   55  GLN55      -0.1964
     53  CA        22.3960   38.6590   -5.0590 C.3    55  GLN55       0.1733
     54  C         21.1150   39.4650   -4.9290 C.2    55  GLN55       0.2616
     55  O         20.3730   39.6430   -5.8880 O.2    55  GLN55      -0.2715
     56  CB        22.0460   37.1790   -5.1720 C.3    55  GLN55       0.0408
     57  CG        21.7370   36.3830   -3.9010 C.3    55  GLN55       0.0908
     58  CD        22.9490   36.0270   -3.0290 C.2    55  GLN55       0.2608
     59  OE1       23.3080   36.7890   -2.1260 O.2    55  GLN55      -0.2717
     60  NE2       23.6140   34.9080   -3.2910 N.am   55  GLN55      -0.0878
     61  N         20.7640   39.9500   -3.7420 N.am   56  MET56      -0.1977
     62  CA        19.6060   40.8380   -3.5820 C.3    56  MET56       0.1605
     63  C         20.0960   42.2880   -3.7850 C.2    56  MET56       0.2287
     64  O         19.3470   43.2320   -4.0200 O.2    56  MET56      -0.2864
     65  CB        19.0370   40.5320   -2.1900 C.3    56  MET56       0.0413
     66  CG        18.2080   39.2240   -2.1620 C.3    56  MET56       0.0598
     67  SD        18.8250   37.6860   -2.9510 S.3    56  MET56      -0.1393
     68  CE        19.3130   36.8660   -1.4560 C.3    56  MET56       0.0692
     69  N         17.6950   32.0590   -3.4110 N.3    73  HIS73      -0.1241
     70  CA        18.1050   31.8370   -2.0140 C.3    73  HIS73       0.1621
     71  C         17.0640   31.0570   -1.2140 C.2    73  HIS73       0.2264
     72  O         17.4170   30.4190   -0.2300 O.2    73  HIS73      -0.2867
     73  CB        18.3350   33.1420   -1.2810 C.3    73  HIS73       0.0745
     74  CG        18.8800   33.0270    0.1380 C.ar   73  HIS73       0.0817
     75  ND1       19.7840   32.1950    0.6500 N.ar   73  HIS73      -0.2268
     76  CD2       18.5430   33.9060    1.1430 C.ar   73  HIS73       0.1154
     77  CE1       20.0170   32.5460    1.8870 C.ar   73  HIS73       0.1986
     78  NE2       19.2650   33.5600    2.1770 N.ar   73  HIS73      -0.2212
     79  N         18.1050   27.4550   -2.0430 N.3    76  ARG76      -0.1231
     80  CA        19.5000   27.2050   -1.6680 C.3    76  ARG76       0.1694
     81  C         19.8070   26.9130   -0.2040 C.2    76  ARG76       0.2591
     82  O         20.4740   25.9350    0.1510 O.2    76  ARG76      -0.2718
     83  CB        20.3720   28.4000   -2.1150 C.3    76  ARG76       0.0321
     84  CG        21.8680   28.1680   -2.0560 C.3    76  ARG76       0.0489
     85  CD        22.4810   29.3360   -2.7940 C.3    76  ARG76       0.2205
     86  NE        23.3700   28.9920   -3.8930 N.pl3  76  ARG76      -0.0865
     87  CZ        24.6430   28.6150   -3.7050 C.cat  76  ARG76       0.5346
     88  NH1       25.1970   28.4180   -2.5040 N.pl3  76  ARG76       0.1354
     89  NH2       25.4020   28.3880   -4.7710 N.pl3  76  ARG76       0.1354
     90  N         19.1890   27.7210    0.6450 N.am   77  VAL77      -0.1980
     91  CA        19.4220   27.6740    2.0540 C.3    77  VAL77       0.1595
     92  C         18.4880   26.5800    2.5890 C.2    77  VAL77       0.2287
     93  O         18.9070   25.7370    3.3880 O.2    77  VAL77      -0.2864
     94  CB        19.1800   29.1600    2.4920 C.3    77  VAL77       0.0276
     95  CG1       17.6970   29.4840    2.7240 C.3    77  VAL77       0.0022
     96  CG2       19.9380   29.4200    3.7630 C.3    77  VAL77       0.0022
     97  N         19.7530   22.7860    2.3700 N.3    80  LEU80      -0.1231
     98  CA        20.9420   22.7590    3.2340 C.3    80  LEU80       0.1693
     99  C         20.5230   22.8650    4.6870 C.2    80  LEU80       0.2591
    100  O         21.2300   22.3650    5.5590 O.2    80  LEU80      -0.2718
    101  CB        21.9190   23.9090    2.8790 C.3    80  LEU80       0.0284
    102  CG        23.4160   23.5360    2.9280 C.3    80  LEU80       0.0019
    103  CD1       24.1810   24.3170    1.8770 C.3    80  LEU80       0.0001
    104  CD2       23.9730   23.8180    4.3190 C.3    80  LEU80       0.0001
    105  N         19.3700   23.4650    4.9840 N.am   81  MET81      -0.1979
    106  CA        18.8990   23.4670    6.3370 C.3    81  MET81       0.1605
    107  C         18.3710   22.0510    6.6440 C.2    81  MET81       0.2287
    108  O         18.6900   21.5200    7.7230 O.2    81  MET81      -0.2864
    109  CB        17.8570   24.5750    6.4480 C.3    81  MET81       0.0413
    110  CG        17.9050   25.1970    7.8500 C.3    81  MET81       0.0598
    111  SD        18.0580   27.0090    7.9740 S.3    81  MET81      -0.1393
    112  CE        16.4150   27.3580    8.5050 C.3    81  MET81       0.0692
    113  N         21.1220   20.3320    8.2050 N.3    84  TYR84      -0.1241
    114  CA        21.3370   20.5260    9.6520 C.3    84  TYR84       0.1605
    115  C         20.3180   19.7300   10.4560 C.2    84  TYR84       0.2264
    116  O         20.6900   19.1400   11.4740 O.2    84  TYR84      -0.2867
    117  CB        21.2240   22.0300   10.1330 C.3    84  TYR84       0.0534
    118  CG        22.3980   22.9060    9.6750 C.ar   84  TYR84      -0.0201
    119  CD1       23.7230   22.4850    9.8760 C.ar   84  TYR84      -0.0009
    120  CD2       22.1230   24.0360    8.9150 C.ar   84  TYR84      -0.0009
    121  CE1       24.7710   23.1700    9.2570 C.ar   84  TYR84       0.0417
    122  CE2       23.1500   24.7230    8.2920 C.ar   84  TYR84       0.0417
    123  CZ        24.4760   24.2830    8.4370 C.ar   84  TYR84       0.1957
    124  OH        25.4690   24.8630    7.6430 O.3    84  TYR84      -0.2866
    125  N         28.4560   22.9770   10.1860 N.3    97  LEU97      -0.1245
    126  CA        28.2030   24.3350   10.6420 C.3    97  LEU97       0.1561
    127  C         29.4190   25.2220   10.4810 C.2    97  LEU97       0.2260
    128  O         29.2740   26.3420    9.9910 O.2    97  LEU97      -0.2867
    129  CB        27.7800   24.2880   12.1150 C.3    97  LEU97       0.0270
    130  CG        26.7900   25.2220   12.8300 C.3    97  LEU97       0.0019
    131  CD1       26.1430   26.3100   11.9550 C.3    97  LEU97       0.0001
    132  CD2       25.7390   24.2720   13.3850 C.3    97  LEU97       0.0001
    133  N         31.9780   25.3350    8.2280 N.3    99  THR99      -0.1203
    134  CA        32.2040   25.9080    6.9090 C.3    99  THR99       0.1994
    135  C         31.1630   27.0090    6.7550 C.2    99  THR99       0.2617
    136  O         31.5100   28.0460    6.1850 O.2    99  THR99      -0.2717
    137  CB        32.0510   24.8270    5.7760 C.3    99  THR99       0.1784
    138  OG1       32.8990   23.6870    6.0530 O.3    99  THR99      -0.2211
    139  CG2       32.5030   25.4010    4.4210 C.3    99  THR99       0.0376
    140  N         29.9560   26.9070    7.3470 N.am  100  LEU100     -0.1979
    141  CA        28.9710   28.0000    7.2910 C.3   100  LEU100      0.1596
    142  C         29.2920   29.2060    8.1840 C.2   100  LEU100      0.2287
    143  O         28.9320   30.3610    7.9200 O.2   100  LEU100     -0.2864
    144  CB        27.6040   27.5130    7.6870 C.3   100  LEU100      0.0297
    145  CG        26.4960   28.4590    7.2980 C.3   100  LEU100      0.0022
    146  CD1       25.9370   27.9230    6.0080 C.3   100  LEU100      0.0001
    147  CD2       25.4740   28.6280    8.4310 C.3   100  LEU100      0.0001
    148  N         31.5120   31.3820    6.2630 N.3   103  THR103     -0.1203
    149  CA        30.8270   32.3390    5.4010 C.3   103  THR103      0.1994
    150  C         30.4620   33.5880    6.1900 C.2   103  THR103      0.2617
    151  O         31.0700   34.6420    6.0160 O.2   103  THR103     -0.2717
    152  CB        29.5200   31.7460    4.7980 C.3   103  THR103      0.1784
    153  OG1       29.7230   30.3550    4.5280 O.3   103  THR103     -0.2211
    154  CG2       29.1120   32.5210    3.5470 C.3   103  THR103      0.0376
    155  N         29.5480   33.4900    7.1580 N.am  104  HIS104     -0.1975
    156  CA        29.0110   34.6700    7.8270 C.3   104  HIS104      0.1656
    157  C         30.0490   35.4690    8.5890 C.2   104  HIS104      0.2291
    158  O         29.9680   36.7060    8.6080 O.2   104  HIS104     -0.2864
    159  CB        27.9460   34.3300    8.8660 C.3   104  HIS104      0.0771
    160  CG        26.7940   33.5000    8.3570 C.ar  104  HIS104      0.0820
    161  ND1       26.9220   32.3190    7.7890 N.ar  104  HIS104     -0.2267
    162  CD2       25.4680   33.8310    8.3920 C.ar  104  HIS104      0.1154
    163  CE1       25.7280   31.9140    7.4740 C.ar  104  HIS104      0.1986
    164  NE2       24.8750   32.8230    7.8340 N.ar  104  HIS104     -0.2212
    165  N         31.7630   38.6430    6.5150 N.3   107  ASN107     -0.1240
    166  CA        31.1970   39.9790    6.3050 C.3   107  ASN107      0.1653
    167  C         31.1630   40.8930    7.4950 C.2   107  ASN107      0.2266
    168  O         31.8090   41.9400    7.4770 O.2   107  ASN107     -0.2867
    169  CB        29.7610   39.9120    5.7530 C.3   107  ASN107      0.1155
    170  CG        29.6480   39.9320    4.2300 C.2   107  ASN107      0.2627
    171  OD1       30.6060   40.1770    3.4920 O.2   107  ASN107     -0.2716
    172  ND2       28.4620   39.6790    3.6920 N.am  107  ASN107     -0.0877
    173  N         28.4840   39.6350   10.4640 N.3   109  VAL109     -0.1245
    174  CA        27.2480   39.0180   10.9290 C.3   109  VAL109      0.1561
    175  C         27.6470   38.7160   12.3640 C.2   109  VAL109      0.2260
    176  O         28.6900   38.0830   12.6180 O.2   109  VAL109     -0.2867
    177  CB        26.9520   37.6920   10.2320 C.3   109  VAL109      0.0252
    178  CG1       25.7070   37.0730   10.8170 C.3   109  VAL109      0.0019
    179  CG2       26.7860   37.9290    8.7540 C.3   109  VAL109      0.0019
    180  N         22.6300   41.1990   14.1460 N.3   113  ASN113     -0.1225
    181  CA        21.8990   40.5870   13.0520 C.3   113  ASN113      0.1785
    182  C         21.2010   39.2660   13.3230 C.2   113  ASN113      0.2597
    183  O         20.0900   39.0340   12.8060 O.2   113  ASN113     -0.2718
    184  CB        22.8210   40.4100   11.8560 C.3   113  ASN113      0.1169
    185  CG        23.0190   41.7270   11.0970 C.2   113  ASN113      0.2627
    186  OD1       23.8900   42.5330   11.4560 O.2   113  ASN113     -0.2716
    187  ND2       22.2290   42.0030   10.0580 N.am  113  ASN113     -0.0877
    188  N         21.7690   38.4240   14.1960 N.am  114  TYR114     -0.1976
    189  CA        21.0910   37.1740   14.5140 C.3   114  TYR114      0.1639
    190  C         19.7400   37.3970   15.2010 C.2   114  TYR114      0.2290
    191  O         18.7680   36.7360   14.7900 O.2   114  TYR114     -0.2864
    192  CB        21.9340   36.3210   15.4110 C.3   114  TYR114      0.0560
    193  CG        22.9700   35.4050   14.7550 C.ar  114  TYR114     -0.0198
    194  CD1       22.5950   34.4790   13.7700 C.ar  114  TYR114     -0.0009
    195  CD2       24.2980   35.4340   15.2270 C.ar  114  TYR114     -0.0009
    196  CE1       23.5540   33.5750   13.2850 C.ar  114  TYR114      0.0417
    197  CE2       25.2460   34.5300   14.7450 C.ar  114  TYR114      0.0417
    198  CZ        24.8720   33.6030   13.7730 C.ar  114  TYR114      0.1957
    199  OH        25.8030   32.6930   13.3020 O.3   114  TYR114     -0.2866
    200  N         16.5220   37.3760   12.5980 N.3   117  PHE117     -0.1241
    201  CA        16.1040   36.0870   12.0370 C.3   117  PHE117      0.1605
    202  C         15.2890   35.3090   13.0530 C.2   117  PHE117      0.2264
    203  O         14.0960   35.0890   12.8730 O.2   117  PHE117     -0.2867
    204  CB        17.3720   35.3050   11.6410 C.3   117  PHE117      0.0534
    205  CG        17.2490   34.1140   10.6780 C.ar  117  PHE117     -0.0203
    206  CD1       16.6510   32.9160   11.0720 C.ar  117  PHE117     -0.0042
    207  CD2       17.7290   34.2350    9.3810 C.ar  117  PHE117     -0.0042
    208  CE1       16.5220   31.8490   10.1720 C.ar  117  PHE117     -0.0003
    209  CE2       17.6070   33.1740    8.4920 C.ar  117  PHE117     -0.0003
    210  CZ        17.0010   31.9850    8.8800 C.ar  117  PHE117     -0.0000
    211  N         17.6210   27.9510   18.1810 N.3   145  PHE145     -0.1241
    212  CA        18.2620   29.1610   17.6490 C.3   145  PHE145      0.1605
    213  C         19.2850   29.7230   18.6150 C.2   145  PHE145      0.2264
    214  O         20.2120   30.4010   18.1790 O.2   145  PHE145     -0.2867
    215  CB        17.2190   30.2210   17.3560 C.3   145  PHE145      0.0534
    216  CG        17.7250   31.3590   16.4510 C.ar  145  PHE145     -0.0203
    217  CD1       17.8390   31.1670   15.0710 C.ar  145  PHE145     -0.0042
    218  CD2       18.0860   32.5950   16.9990 C.ar  145  PHE145     -0.0042
    219  CE1       18.2920   32.2010   14.2500 C.ar  145  PHE145     -0.0003
    220  CE2       18.5420   33.6340   16.1860 C.ar  145  PHE145     -0.0003
    221  CZ        18.6560   33.4320   14.8050 C.ar  145  PHE145     -0.0000
    222  N         22.1910   26.4350   17.8420 N.3   148  VAL148     -0.1231
    223  CA        22.6520   26.0290   16.5250 C.3   148  VAL148      0.1693
    224  C         23.2100   27.2140   15.7360 C.2   148  VAL148      0.2595
    225  O         24.1290   26.9910   14.9340 O.2   148  VAL148     -0.2718
    226  CB        21.4490   25.3150   15.8080 C.3   148  VAL148      0.0266
    227  CG1       21.8200   24.7920   14.4230 C.3   148  VAL148      0.0020
    228  CG2       21.0880   24.0520   16.5900 C.3   148  VAL148      0.0020
    229  N         22.7550   28.4700   15.9650 N.am  149  GLN149     -0.1920
    230  CA        23.2020   29.6550   15.2230 C.3   149  GLN149      0.1949
    231  C         24.7180   29.7020   15.2170 C.2   149  GLN149      0.2659
    232  O         25.3090   30.1020   16.2090 O.2   149  GLN149     -0.2711
    233  CB        22.6580   31.0010   15.8480 C.2   149  GLN149      0.0091
    234  CG        22.9580   31.4550   17.3270 C.2   149  GLN149      0.0587
    235  CD        22.7480   32.9410   17.6570 C.2   149  GLN149      0.2841
    236  OE1       23.6840   33.6930   17.8820 O.2   149  GLN149     -0.2667
    237  NE2       21.5700   33.5290   17.7190 N.am  149  GLN149     -0.0837
    238  N         25.3620   29.1610   14.1700 N.am  150  GLY150     -0.1952
    239  CA        26.8270   29.1000   14.0030 C.3   150  GLY150      0.1869
    240  C         27.6050   28.7790   15.2760 C.2   150  GLY150      0.2309
    241  O         28.5900   29.4360   15.6080 O.2   150  GLY150     -0.2863
@<TRIPOS>BOND
     1    55    54    2
     2    56    53    1
     3    56    57    1
     4    53    54    1
     5    53    52    1
     6    48    47    2
     7    54    61   am
     8    89    87    1
     9    47    52   am
    10    47    46    1
    11    64    63    2
    12    57    58    1
    13    86    87    2
    14    86    85    1
    15    63    62    1
    16    61    62    1
    17    87    88    1
    18    62    65    1
    19    69    70    1
    20    60    58   am
    21    58    59    2
    22    49    46    1
    23    49    50    1
    24    67    66    1
    25    67    68    1
    26    46    45    1
    27    85    84    1
    28    65    66    1
    29    83    84    1
    30    83    80    1
    31    79    80    1
    32    70    73    1
    33    70    71    1
    34    50    51    1
    35    80    81    1
    36    37    36    2
    37    45    36   am
    38    45    51    1
    39    73    74    1
    40    71    72    2
    41    36    35    1
    42    81    82    2
    43    81    90   am
    44    74    75   ar
    45    74    76   ar
    46    35    38    1
    47    35    34    1
    48    90    91    1
    49    38    39    1
    50    75    77   ar
    51    76    78   ar
    52    34    27   am
    53   103   102    1
    54    77    78   ar
    55    39    41   ar
    56    39    40   ar
    57    91    94    1
    58    91    92    1
    59    27    28    2
    60    27    26    1
    61    41    43   ar
    62    97    98    1
    63    94    95    1
    64    94    96    1
    65    25    26    1
    66    92    93    2
    67    26    29    1
    68   101   102    1
    69   101    98    1
    70    40    42   ar
    71   102   104    1
    72    98    99    1
    73    43    44   ar
    74   171   170    2
    75   154   152    1
    76   172   170   am
    77    23    22    2
    78     8    10   ar
    79     8     6   ar
    80     5     6    1
    81     5     2    1
    82    42    44   ar
    83    29    30    1
    84    10    11   ar
    85   170   169    1
    86    22    21    1
    87     6     7   ar
    88   139   137    1
    89   153   152    1
    90     3     2    1
    91     3     4    1
    92    30    31    1
    93    99   105   am
    94    99   100    2
    95   152   149    1
    96   105   106    1
    97     2     1    1
    98    11     9   ar
    99     7     9   ar
   100   149   150    1
   101   149   148    1
   102   169   166    1
   103    21    24    1
   104    21    20    1
   105   137   138    1
   106   137   134    1
   107   146   145    1
   108   151   150    2
   109    31    32    1
   110   136   135    2
   111   150   155   am
   112   166   165    1
   113   166   167    1
   114   106   109    1
   115   106   107    1
   116   109   110    1
   117   107   108    2
   118   135   134    1
   119   135   140   am
   120   134   133    1
   121    32    33    1
   122   155   156    1
   123   141   140    1
   124   141   144    1
   125   141   142    1
   126   145   144    1
   127   145   147    1
   128   163   161   ar
   129   163   164   ar
   130   168   167    2
   131   124   123    1
   132   161   160   ar
   133    12    13    1
   134   156   157    1
   135   156   159    1
   136   164   162   ar
   137   110   111    1
   138    14    13    1
   139    14    15    2
   140   143   142    2
   141   111   112    1
   142   113   114    1
   143    16    13    1
   144    16    17    1
   145    16    18    1
   146   122   123   ar
   147   122   120   ar
   148   160   162   ar
   149   160   159    1
   150    19    17    1
   151   123   121   ar
   152   209   210   ar
   153   209   207   ar
   154   157   158    2
   155   179   177    1
   156   210   208   ar
   157   120   118   ar
   158   121   119   ar
   159   207   205   ar
   160   114   117    1
   161   114   115    1
   162   118   119   ar
   163   118   117    1
   164   128   127    2
   165   187   185   am
   166   208   206   ar
   167   125   126    1
   168   177   178    1
   169   177   174    1
   170   115   116    2
   171   173   174    1
   172   127   126    1
   173   126   129    1
   174   205   206   ar
   175   205   204    1
   176   174   175    1
   177   185   186    2
   178   185   184    1
   179   204   201    1
   180   184   181    1
   181   131   130    1
   182   201   200    1
   183   201   202    1
   184   129   130    1
   185   175   176    2
   186   183   182    2
   187   130   132    1
   188   203   202    2
   189   181   182    1
   190   181   180    1
   191   196   194   ar
   192   196   198   ar
   193   199   198    1
   194   182   188   am
   195   194   193   ar
   196   198   197   ar
   197   239   238    1
   198   239   240    1
   199   238   231   am
   200   188   189    1
   201   219   221   ar
   202   219   217   ar
   203   227   226    1
   204   189   190    1
   205   189   192    1
   206   197   195   ar
   207   193   195   ar
   208   193   192    1
   209   191   190    2
   210   221   220   ar
   211   225   224    2
   212   217   216   ar
   213   231   230    1
   214   231   232    2
   215   230   233    1
   216   230   229    1
   217   240   241    2
   218   224   229   am
   219   224   223    1
   220   226   223    1
   221   226   228    1
   222   233   234    2
   223   220   218   ar
   224   216   218   ar
   225   216   215    1
   226   223   222    1
   227   234   235    1
   228   215   212    1
   229   212   211    1
   230   212   213    1
   231   235   237   am
   232   235   236    2
   233   214   213    2
