@<TRIPOS>MOLECULE
tmp/1hmpB00.pdb
 136 131 0 0 0
SMALL
GASTEIGER

@<TRIPOS>ATOM
      1  N         40.7080   23.2480   11.8040 N.3    65  LYS65      -0.1245
      2  CA        41.2240   22.4350   12.9160 C.3    65  LYS65       0.1561
      3  C         41.5260   23.2060   14.2000 C.2    65  LYS65       0.2260
      4  O         41.0590   22.8760   15.3070 O.2    65  LYS65      -0.2867
      5  CB        42.4740   21.6560   12.5450 C.3    65  LYS65       0.0271
      6  CG        43.5410   21.7890   13.6260 C.3    65  LYS65       0.0035
      7  CD        44.0160   20.4630   14.2240 C.3    65  LYS65       0.0206
      8  CE        43.3990   20.1450   15.5910 C.3    65  LYS65       0.1093
      9  NZ        43.5300   21.2560   16.5540 N.3    65  LYS65      -0.1314
     10  N         34.2800   20.5230    8.8410 N.3    99  LYS99      -0.1245
     11  CA        35.0510   19.4170    8.2670 C.3    99  LYS99       0.1561
     12  C         34.6220   18.0420    8.8030 C.2    99  LYS99       0.2260
     13  O         35.4240   17.3260    9.4180 O.2    99  LYS99      -0.2867
     14  CB        36.5300   19.6290    8.5250 C.3    99  LYS99       0.0271
     15  CG        36.8130   19.7050   10.0010 C.3    99  LYS99       0.0035
     16  CD        38.2780   19.6000   10.2660 C.3    99  LYS99       0.0206
     17  CE        38.5910   19.8430   11.6840 C.3    99  LYS99       0.1093
     18  NZ        38.1510   18.7420   12.4870 N.3    99  LYS99      -0.1314
     19  N         45.4870   20.9460    5.4120 N.3   125  GLU125     -0.1231
     20  CA        45.2790   20.3160    6.6930 C.3   125  GLU125      0.1699
     21  C         46.6290   19.9630    7.2680 C.2   125  GLU125      0.2592
     22  O         47.6190   19.9250    6.5940 O.2   125  GLU125     -0.2718
     23  CB        44.3130   19.1140    6.6950 C.3   125  GLU125      0.0402
     24  CG        43.7340   18.7900    8.1020 C.3   125  GLU125      0.1161
     25  CD        42.6230   17.7540    8.0040 C.2   125  GLU125      0.3649
     26  OE1       42.3560   17.4220    6.7720 O.co2 125  GLU125     -0.2457
     27  OE2       42.0160   17.2790    8.9530 O.co2 125  GLU125     -0.2457
     28  N         46.7030   19.7760    8.5490 N.am  126  ASP126     -0.1960
     29  CA        47.9720   19.4610    9.1380 C.3   126  ASP126      0.1840
     30  C         48.2290   17.9170    9.2270 C.2   126  ASP126      0.2622
     31  O         49.1750   17.3810    8.6630 O.2   126  ASP126     -0.2715
     32  CB        48.0430   20.1770   10.4780 C.3   126  ASP126      0.1450
     33  CG        46.8690   19.8150   11.3040 C.2   126  ASP126      0.3671
     34  OD1       45.9250   19.1390   10.8900 O.co2 126  ASP126     -0.2456
     35  OD2       46.9650   20.2830   12.5170 O.co2 126  ASP126     -0.2456
     36  N         47.3820   17.1690    9.8820 N.am  127  ILE127     -0.1963
     37  CA        47.6070   15.7840    9.8520 C.3   127  ILE127      0.1727
     38  C         46.3740   15.0840    9.3950 C.2   127  ILE127      0.2616
     39  O         45.2600   15.4280    9.7490 O.2   127  ILE127     -0.2715
     40  CB        48.0110   15.2080   11.1930 C.3   127  ILE127      0.0290
     41  CG1       47.9750   13.6670   11.0640 C.3   127  ILE127      0.0022
     42  CG2       47.0330   15.7270   12.2660 C.3   127  ILE127      0.0023
     43  CD1       49.0140   12.9450   11.9140 C.3   127  ILE127      0.0001
     44  N         46.5740   14.0950    8.5770 N.am  128  ILE128     -0.1963
     45  CA        45.4520   13.2880    8.1870 C.3   128  ILE128      0.1727
     46  C         45.5300   11.9500    8.8430 C.2   128  ILE128      0.2616
     47  O         46.6290   11.3660    8.9760 O.2   128  ILE128     -0.2715
     48  CB        45.0120   13.2360    6.7310 C.3   128  ILE128      0.0290
     49  CG1       44.6940   11.8860    6.1380 C.3   128  ILE128      0.0022
     50  CG2       45.2160   14.4230    5.7900 C.3   128  ILE128      0.0023
     51  CD1       44.0710   12.0520    4.7500 C.3   128  ILE128      0.0001
     52  N         44.3840   11.5580    9.3720 N.am  129  ASP129     -0.1957
     53  CA        44.3020   10.3450   10.0930 C.3   129  ASP129      0.1840
     54  C         43.4570    9.3280    9.3720 C.2   129  ASP129      0.2623
     55  O         44.0180    8.5040    8.6640 O.2   129  ASP129     -0.2715
     56  CB        43.9590   10.5980   11.5530 C.3   129  ASP129      0.1450
     57  CG        44.0780    9.3570   12.3900 C.2   129  ASP129      0.3671
     58  OD1       44.2330    8.2460   11.7300 O.co2 129  ASP129     -0.2456
     59  OD2       44.0350    9.3710   13.5830 O.co2 129  ASP129     -0.2456
     60  N         42.1300    9.2990    9.6480 N.am  130  THR130     -0.1937
     61  CA        41.2230    8.3290    8.9870 C.3   130  THR130      0.2028
     62  C         40.8040    8.8520    7.6180 C.2   130  THR130      0.2643
     63  O         40.3170    8.0820    6.8100 O.2   130  THR130     -0.2714
     64  CB        39.9460    7.9560    9.7830 C.3   130  THR130      0.1808
     65  OG1       39.3660    9.1400   10.2820 O.3   130  THR130     -0.2208
     66  CG2       40.1680    6.9140   10.9080 C.3   130  THR130      0.0379
     67  N         41.0270   10.1740    7.3930 N.am  131  GLY131     -0.1939
     68  CA        40.7270   10.8880    6.1550 C.3   131  GLY131      0.2014
     69  C         39.2960   11.4540    6.0690 C.2   131  GLY131      0.2639
     70  O         39.0070   12.2840    5.2140 O.2   131  GLY131     -0.2714
     71  N         38.3990   10.9880    6.9350 N.am  132  LYS132     -0.1963
     72  CA        36.9820   11.3620    6.9360 C.3   132  LYS132      0.1728
     73  C         36.7320   12.8550    6.6750 C.2   132  LYS132      0.2616
     74  O         36.1080   13.2590    5.6770 O.2   132  LYS132     -0.2715
     75  CB        36.3800   10.9410    8.2750 C.3   132  LYS132      0.0311
     76  CG        35.0430   10.2040    8.1970 C.3   132  LYS132      0.0038
     77  CD        34.4030    9.9950    9.5670 C.3   132  LYS132      0.0206
     78  CE        34.9870    8.8380   10.3600 C.3   132  LYS132      0.1093
     79  NZ        33.9550    8.1310   11.1610 N.3   132  LYS132     -0.1314
     80  N         37.3180   13.6460    7.5630 N.am  133  THR133     -0.1951
     81  CA        37.2080   15.0590    7.5070 C.3   133  THR133      0.1897
     82  C         37.4310   15.6490    6.1400 C.2   133  THR133      0.2313
     83  O         36.6970   16.4570    5.6180 O.2   133  THR133     -0.2863
     84  CB        38.2370   15.5730    8.4790 C.3   133  THR133      0.1794
     85  OG1       37.7710   15.3940    9.8030 O.3   133  THR133     -0.2208
     86  CG2       38.5500   17.0130    8.1970 C.3   133  THR133      0.0378
     87  N         49.2060    9.9210    8.6460 N.3   157  LYS157     -0.1245
     88  CA        49.3300    8.7440    9.4650 C.3   157  LYS157      0.1561
     89  C         48.9440    7.5560    8.6700 C.2   157  LYS157      0.2260
     90  O         47.9600    7.6110    7.9740 O.2   157  LYS157     -0.2867
     91  CB        48.3610    8.7420   10.6000 C.3   157  LYS157      0.0271
     92  CG        49.0070    9.0980   11.8970 C.3   157  LYS157      0.0035
     93  CD        48.0310    9.8780   12.7180 C.3   157  LYS157      0.0206
     94  CE        47.9700    9.4480   14.1650 C.3   157  LYS157      0.1093
     95  NZ        48.5640   10.4480   15.0470 N.3   157  LYS157     -0.1314
     96  N         50.4530    8.8420   18.3230 N.3   178  PHE178     -0.1227
     97  CA        49.8540   10.1160   18.6450 C.3   178  PHE178      0.1736
     98  C         50.8380   11.2780   18.8750 C.2   178  PHE178      0.2595
     99  O         51.4630   11.4340   19.9310 O.2   178  PHE178     -0.2718
    100  CB        48.7900    9.9770   19.7460 C.3   178  PHE178      0.0547
    101  CG        47.8570   11.1710   19.7510 C.ar  178  PHE178     -0.0202
    102  CD1       46.8030   11.2480   18.8420 C.ar  178  PHE178     -0.0042
    103  CD2       48.0780   12.2480   20.6110 C.ar  178  PHE178     -0.0042
    104  CE1       45.9720   12.3630   18.8080 C.ar  178  PHE178     -0.0003
    105  CE2       47.2610   13.3770   20.5900 C.ar  178  PHE178     -0.0003
    106  CZ        46.2370   13.4410   19.6540 C.ar  178  PHE178     -0.0000
    107  N         50.9010   12.1580   17.8950 N.am  179  VAL179     -0.1966
    108  CA        51.8160   13.2720   17.9650 C.3   179  VAL179      0.1727
    109  C         51.2620   14.6810   18.3390 C.2   179  VAL179      0.2616
    110  O         50.1300   15.0740   18.1120 O.2   179  VAL179     -0.2715
    111  CB        52.6500   13.3000   16.6860 C.3   179  VAL179      0.0290
    112  CG1       53.5750   12.0990   16.6050 C.3   179  VAL179      0.0023
    113  CG2       51.7400   13.3460   15.4550 C.3   179  VAL179      0.0023
    114  N         52.1420   15.4810   18.8760 N.am  180  VAL180     -0.1977
    115  CA        51.9140   16.8610   19.2370 C.3   180  VAL180      0.1596
    116  C         53.1760   17.6810   18.8620 C.2   180  VAL180      0.2287
    117  O         54.2620   17.1260   18.5670 O.2   180  VAL180     -0.2864
    118  CB        51.7500   16.9970   20.7290 C.3   180  VAL180      0.0276
    119  CG1       50.5190   16.2580   21.2090 C.3   180  VAL180      0.0022
    120  CG2       52.9780   16.3850   21.3690 C.3   180  VAL180      0.0022
    121  N         50.3880   20.9060   15.9410 N.3   184  LEU184     -0.1231
    122  CA        49.4130   20.0040   16.5310 C.3   184  LEU184      0.1693
    123  C         49.3370   20.3050   18.0470 C.2   184  LEU184      0.2592
    124  O         50.3750   20.5440   18.6590 O.2   184  LEU184     -0.2718
    125  CB        49.9330   18.5750   16.3900 C.3   184  LEU184      0.0284
    126  CG        49.7870   17.9270   15.0310 C.3   184  LEU184      0.0019
    127  CD1       49.8510   18.9660   13.9440 C.3   184  LEU184      0.0001
    128  CD2       50.9350   16.9330   14.8670 C.3   184  LEU184      0.0001
    129  N         48.1320   20.3060   18.6500 N.am  185  ASP185     -0.1974
    130  CA        47.9820   20.5900   20.0840 C.3   185  ASP185      0.1709
    131  C         47.1860   19.5290   20.7750 C.2   185  ASP185      0.2293
    132  O         46.6530   18.6450   20.1490 O.2   185  ASP185     -0.2864
    133  CB        47.2340   21.8950   20.3260 C.3   185  ASP185      0.1436
    134  CG        45.7440   21.7560   20.2290 C.2   185  ASP185      0.3671
    135  OD1       45.2890   21.7090   18.9850 O.co2 185  ASP185     -0.2456
    136  OD2       45.0370   21.7380   21.2160 O.co2 185  ASP185     -0.2456
@<TRIPOS>BOND
     1    51    49    1
     2    70    69    2
     3    19    20    1
     4    83    82    2
     5    74    73    2
     6    50    48    1
     7    69    68    1
     8    69    71   am
     9    49    48    1
    10    82    81    1
    11    68    67    1
    12    22    21    2
    13    73    72    1
    14    73    80   am
    15    20    23    1
    16    20    21    1
    17    23    24    1
    18    48    45    1
    19    26    25   ar
    20    63    62    2
    21    71    72    1
    22    72    75    1
    23    21    28   am
    24    67    62   am
    25    81    80    1
    26    81    84    1
    27    62    61    1
    28    90    89    2
    29    25    24    1
    30    25    27   ar
    31    45    44    1
    32    45    46    1
    33    76    75    1
    34    76    77    1
    35    86    84    1
    36    11    14    1
    37    11    12    1
    38    11    10    1
    39    84    85    1
    40    14    15    1
    41    28    29    1
    42    44    38   am
    43    87    88    1
    44    31    30    2
    45    55    54    2
    46    89    88    1
    47    12    13    2
    48    46    47    2
    49    46    52   am
    50    61    60    1
    51    61    64    1
    52    29    30    1
    53    29    32    1
    54    30    36   am
    55    52    53    1
    56    54    60   am
    57    54    53    1
    58    38    39    2
    59    38    37    1
    60    88    91    1
    61    77    78    1
    62    64    65    1
    63    64    66    1
    64    37    36    1
    65    37    40    1
    66    15    16    1
    67    53    56    1
    68    16    17    1
    69    78    79    1
    70    32    33    1
    71    91    92    1
    72    34    33   ar
    73    41    40    1
    74    41    43    1
    75    40    42    1
    76    33    35   ar
    77    56    57    1
    78    17    18    1
    79    58    57   ar
    80     1     2    1
    81    92    93    1
    82    57    59   ar
    83     5     2    1
    84     5     6    1
    85    93    94    1
    86     2     3    1
    87     6     7    1
    88   127   126    1
    89    94    95    1
    90     3     4    2
    91     7     8    1
    92   128   126    1
    93   126   125    1
    94   113   111    1
    95     8     9    1
    96   121   122    1
    97   125   122    1
    98   122   123    1
    99   112   111    1
   100   111   108    1
   101   107   108    1
   102   107    98   am
   103   108   109    1
   104   123   129   am
   105   123   124    2
   106   110   109    2
   107    96    97    1
   108   109   114   am
   109   117   116    2
   110    97    98    1
   111    97   100    1
   112   129   130    1
   113   104   102   ar
   114   104   106   ar
   115   102   101   ar
   116   116   115    1
   117    98    99    2
   118   114   115    1
   119   135   134   ar
   120   115   118    1
   121   106   105   ar
   122   100   101    1
   123   101   103   ar
   124   130   133    1
   125   130   131    1
   126   132   131    2
   127   134   133    1
   128   134   136   ar
   129   105   103   ar
   130   118   119    1
   131   118   120    1
