@<TRIPOS>MOLECULE
tmp/1hn4B00.pdb
 92 91 0 0 0
SMALL
GASTEIGER

@<TRIPOS>ATOM
      1  N         12.5450   16.1930   22.0200 N.3     6  SER6       -0.1217
      2  CA        13.8330   16.8530   21.8930 C.3     6  SER6        0.1889
      3  C         14.2720   17.3900   23.2510 C.2     6  SER6        0.2288
      4  O         15.4300   17.2420   23.6350 O.2     6  SER6       -0.2866
      5  CB        13.7440   17.9940   20.8770 C.3     6  SER6        0.2089
      6  OG        13.4410   17.4890   19.5870 O.3     6  SER6       -0.2183
      7  N         15.4240   14.6130   25.4490 N.3     9  LEU9       -0.1231
      8  CA        16.7560   14.1780   25.0450 C.3     9  LEU9        0.1693
      9  C         17.7940   15.1740   25.5460 C.2     9  LEU9        0.2592
     10  O         18.8890   14.7910   25.9520 O.2     9  LEU9       -0.2718
     11  CB        16.8440   14.0640   23.5170 C.3     9  LEU9        0.0284
     12  CG        16.1690   12.8390   22.8940 C.3     9  LEU9        0.0019
     13  CD1       16.1210   12.9900   21.3860 C.3     9  LEU9        0.0001
     14  CD2       16.9440   11.5840   23.2670 C.3     9  LEU9        0.0001
     15  N         17.4450   16.4560   25.5240 N.am   10  TRP10      -0.1976
     16  CA        18.3690   17.4790   25.9820 C.3    10  TRP10       0.1640
     17  C         18.6130   17.3460   27.4840 C.2    10  TRP10       0.2290
     18  O         19.7350   17.5380   27.9530 O.2    10  TRP10      -0.2864
     19  CB        17.8300   18.8720   25.6520 C.3    10  TRP10       0.0576
     20  CG        18.8450   19.9460   25.8800 C.ar   10  TRP10       0.0006
     21  CD1       19.0660   20.6360   27.0380 C.ar   10  TRP10       0.0946
     22  CD2       19.8210   20.4110   24.9410 C.ar   10  TRP10       0.0152
     23  NE1       20.1220   21.5020   26.8780 N.ar   10  TRP10      -0.2442
     24  CE2       20.6050   21.3830   25.6010 C.ar   10  TRP10       0.0810
     25  CE3       20.1130   20.0980   23.6070 C.ar   10  TRP10       0.0012
     26  CZ2       21.6650   22.0480   24.9690 C.ar   10  TRP10       0.0191
     27  CZ3       21.1700   20.7610   22.9770 C.ar   10  TRP10       0.0001
     28  CH2       21.9290   21.7240   23.6610 C.ar   10  TRP10       0.0015
     29  N         18.3520   14.5450   29.2500 N.3    12  PHE12      -0.1227
     30  CA        19.1280   13.3220   29.4230 C.3    12  PHE12       0.1736
     31  C         20.5860   13.6510   29.1120 C.2    12  PHE12       0.2595
     32  O         21.4960   13.2230   29.8190 O.2    12  PHE12      -0.2718
     33  CB        18.5760   12.2320   28.4900 C.3    12  PHE12       0.0547
     34  CG        19.3160   10.9170   28.5550 C.ar   12  PHE12      -0.0202
     35  CD1       19.7790   10.4110   29.7660 C.ar   12  PHE12      -0.0042
     36  CD2       19.4980   10.1600   27.4000 C.ar   12  PHE12      -0.0042
     37  CE1       20.4120    9.1670   29.8250 C.ar   12  PHE12      -0.0003
     38  CE2       20.1280    8.9160   27.4440 C.ar   12  PHE12      -0.0003
     39  CZ        20.5860    8.4170   28.6640 C.ar   12  PHE12      -0.0000
     40  N         20.7980   14.4400   28.0640 N.am   13  ARG13      -0.1980
     41  CA        22.1410   14.8490   27.6760 C.3    13  ARG13       0.1597
     42  C         22.8070   15.5890   28.8350 C.2    13  ARG13       0.2287
     43  O         23.9600   15.3190   29.1790 O.2    13  ARG13      -0.2864
     44  CB        22.0720   15.7610   26.4480 C.3    13  ARG13       0.0334
     45  CG        23.3970   16.4200   26.0650 C.3    13  ARG13       0.0492
     46  CD        23.2340   17.2710   24.8090 C.3    13  ARG13       0.2205
     47  NE        24.4870   17.8760   24.3600 N.pl3  13  ARG13      -0.0865
     48  CZ        24.9550   19.0520   24.7710 C.cat  13  ARG13       0.5346
     49  NH1       24.2820   19.7770   25.6550 N.pl3  13  ARG13       0.1354
     50  NH2       26.0990   19.5090   24.2790 N.pl3  13  ARG13       0.1354
     51  N         23.8870   13.2250   31.5510 N.3    16  ILE16      -0.1245
     52  CA        25.0550   12.4270   31.1970 C.3    16  ILE16       0.1561
     53  C         26.3080   13.2750   31.3870 C.2    16  ILE16       0.2260
     54  O         27.3380   12.7870   31.8520 O.2    16  ILE16      -0.2867
     55  CB        24.9940   11.9490   29.7290 C.3    16  ILE16       0.0252
     56  CG1       23.7870   11.0300   29.5330 C.3    16  ILE16       0.0019
     57  CG2       26.2800   11.2130   29.3680 C.3    16  ILE16       0.0019
     58  CD1       23.4970   10.7120   28.0810 C.3    16  ILE16       0.0001
     59  N         27.5590   13.5860   24.8480 N.3    25  PRO25      -0.2102
     60  CA        26.4560   12.6320   24.7080 C.3    25  PRO25       0.1504
     61  C         26.0540   12.1520   23.3180 C.2    25  PRO25       0.2575
     62  O         26.0720   10.9500   23.0580 O.2    25  PRO25      -0.2718
     63  CB        25.3210   13.3150   25.4640 C.3    25  PRO25       0.0282
     64  CG        26.0560   13.9810   26.5870 C.3    25  PRO25       0.0208
     65  CD        27.2160   14.6200   25.8430 C.3    25  PRO25       0.0893
     66  N         25.6860   13.0570   22.4190 N.am   26  LEU26      -0.1980
     67  CA        25.2880   12.6110   21.0870 C.3    26  LEU26       0.1596
     68  C         26.4590   11.9390   20.3820 C.2    26  LEU26       0.2287
     69  O         26.3100   10.8810   19.7730 O.2    26  LEU26      -0.2864
     70  CB        24.7820   13.7860   20.2460 C.3    26  LEU26       0.0297
     71  CG        24.1770   13.3980   18.8940 C.3    26  LEU26       0.0022
     72  CD1       22.9420   12.5540   19.1220 C.3    26  LEU26       0.0001
     73  CD2       23.8220   14.6430   18.1010 C.3    26  LEU26       0.0001
     74  N         27.3050    8.5390   23.0210 N.3    29  PHE29      -0.1227
     75  CA        26.2600    7.5550   23.2690 C.3    29  PHE29       0.1736
     76  C         25.1580    7.4120   22.2290 C.2    29  PHE29       0.2595
     77  O         24.1170    6.8100   22.4960 O.2    29  PHE29      -0.2718
     78  CB        25.6700    7.8260   24.6480 C.3    29  PHE29       0.0547
     79  CG        26.7080    7.8840   25.7290 C.ar   29  PHE29      -0.0202
     80  CD1       27.4670    6.7580   26.0340 C.ar   29  PHE29      -0.0042
     81  CD2       26.9700    9.0710   26.4030 C.ar   29  PHE29      -0.0042
     82  CE1       28.4710    6.8140   26.9880 C.ar   29  PHE29      -0.0003
     83  CE2       27.9770    9.1380   27.3640 C.ar   29  PHE29      -0.0003
     84  CZ        28.7290    8.0050   27.6550 C.ar   29  PHE29      -0.0000
     85  N         25.3970    7.9560   21.0440 N.am   30  ASN30      -0.1974
     86  CA        24.4470    7.8600   19.9470 C.3    30  ASN30       0.1688
     87  C         25.1360    7.0600   18.8530 C.2    30  ASN30       0.2292
     88  O         26.3350    7.2220   18.6220 O.2    30  ASN30      -0.2864
     89  CB        24.0810    9.2520   19.4320 C.3    30  ASN30       0.1181
     90  CG        23.3580    9.2120   18.1000 C.2    30  ASN30       0.2629
     91  OD1       22.2510    8.6800   17.9930 O.2    30  ASN30      -0.2716
     92  ND2       23.9840    9.7740   17.0730 N.am   30  ASN30      -0.0877
@<TRIPOS>BOND
     1    92    90   am
     2    91    90    2
     3    90    89    1
     4    73    71    1
     5    88    87    2
     6    87    86    1
     7    71    72    1
     8    71    70    1
     9    89    86    1
    10     6     5    1
    11    69    68    2
    12    86    85    1
    13    70    67    1
    14    68    67    1
    15     5     2    1
    16    85    76   am
    17    67    66    1
    18    13    12    1
    19     2     1    1
    20     2     3    1
    21    76    77    2
    22    76    75    1
    23    66    61   am
    24    12    14    1
    25    12    11    1
    26    27    25   ar
    27    27    28   ar
    28    74    75    1
    29    62    61    2
    30     3     4    2
    31    75    78    1
    32    61    60    1
    33    11     8    1
    34    25    22   ar
    35    28    26   ar
    36    50    48    1
    37    47    48    2
    38    47    46    1
    39    78    79    1
    40    60    59    1
    41    60    63    1
    42    48    49    1
    43    46    45    1
    44    59    65    1
    45    22    24   ar
    46    22    20   ar
    47    26    24   ar
    48     8     7    1
    49     8     9    1
    50    63    64    1
    51    15     9   am
    52    15    16    1
    53     9    10    2
    54    24    23   ar
    55    19    20    1
    56    19    16    1
    57    79    80   ar
    58    79    81   ar
    59    65    64    1
    60    20    21   ar
    61    16    17    1
    62    80    82   ar
    63    45    44    1
    64    81    83   ar
    65    44    41    1
    66    23    21   ar
    67    82    84   ar
    68    83    84   ar
    69    36    38   ar
    70    36    34   ar
    71    38    39   ar
    72    17    18    2
    73    41    40    1
    74    41    42    1
    75    40    31   am
    76    58    56    1
    77    33    34    1
    78    33    30    1
    79    34    35   ar
    80    39    37   ar
    81    42    43    2
    82    31    30    1
    83    31    32    2
    84    29    30    1
    85    57    55    1
    86    56    55    1
    87    55    52    1
    88    35    37   ar
    89    52    53    1
    90    52    51    1
    91    53    54    2
