@<TRIPOS>MOLECULE
tmp/1hneA00.pdb
 156 155 0 0 0
SMALL
GASTEIGER

@<TRIPOS>ATOM
      1  N         50.9570    7.5410   58.4970 N.3    25  PHE25      -0.1227
      2  CA        50.0930    8.5160   57.7710 C.3    25  PHE25       0.1736
      3  C         48.8290    7.8690   57.2130 C.2    25  PHE25       0.2595
      4  O         47.9270    8.6010   56.7970 O.2    25  PHE25      -0.2718
      5  CB        50.8540    9.2670   56.6770 C.3    25  PHE25       0.0547
      6  CG        51.2640    8.4660   55.4790 C.ar   25  PHE25      -0.0202
      7  CD1       50.4660    8.4580   54.3420 C.ar   25  PHE25      -0.0042
      8  CD2       52.4280    7.6970   55.5210 C.ar   25  PHE25      -0.0042
      9  CE1       50.7940    7.6890   53.2320 C.ar   25  PHE25      -0.0003
     10  CE2       52.7720    6.9330   54.3900 C.ar   25  PHE25      -0.0003
     11  CZ        51.9460    6.9300   53.2740 C.ar   25  PHE25      -0.0000
     12  N         48.8340    6.5460   57.1060 N.am   26  CYS26      -0.1970
     13  CA        47.6500    5.8540   56.5240 C.3    26  CYS26       0.1712
     14  C         47.7010    4.3990   56.9640 C.2    26  CYS26       0.2296
     15  O         48.8290    3.9510   57.2290 O.2    26  CYS26      -0.2864
     16  CB        47.7580    5.9120   54.9760 C.3    26  CYS26       0.0983
     17  SG        46.7640    7.3120   54.2970 S.3    26  CYS26      -0.0798
     18  N         44.3210    7.5560   47.6310 N.3    41  HIS41      -0.1241
     19  CA        44.6370    8.9210   48.0310 C.3    41  HIS41       0.1621
     20  C         45.8010    8.9760   49.0020 C.2    41  HIS41       0.2264
     21  O         46.4500   10.0460   49.0880 O.2    41  HIS41      -0.2867
     22  CB        43.4390    9.7400   48.5340 C.3    41  HIS41       0.0745
     23  CG        43.1320    9.5800   49.9890 C.ar   41  HIS41       0.0817
     24  ND1       42.0950    8.8070   50.4750 N.ar   41  HIS41      -0.2268
     25  CD2       43.7240   10.1610   51.0680 C.ar   41  HIS41       0.1154
     26  CE1       42.0710    8.8880   51.7770 C.ar   41  HIS41       0.1986
     27  NE2       43.0710    9.6500   52.1810 N.ar   41  HIS41      -0.2212
     28  N         41.2200    5.5830   40.1300 N.3    80  TYR80      -0.1241
     29  CA        41.1450    6.6320   41.1610 C.3    80  TYR80       0.1605
     30  C         40.7870    7.9760   40.5890 C.2    80  TYR80       0.2264
     31  O         41.5000    8.4360   39.6840 O.2    80  TYR80      -0.2867
     32  CB        42.4140    6.6470   42.0310 C.3    80  TYR80       0.0534
     33  CG        42.3510    7.7230   43.0910 C.ar   80  TYR80      -0.0201
     34  CD1       43.3850    8.6610   43.2000 C.ar   80  TYR80      -0.0009
     35  CD2       41.2480    7.8450   43.9110 C.ar   80  TYR80      -0.0009
     36  CE1       43.3130    9.6770   44.1610 C.ar   80  TYR80       0.0417
     37  CE2       41.1760    8.8240   44.9060 C.ar   80  TYR80       0.0417
     38  CZ        42.2040    9.7550   44.9830 C.ar   80  TYR80       0.1957
     39  OH        42.0900   10.7510   45.9260 O.3    80  TYR80      -0.2866
     40  N         40.3230   11.6420   41.9490 N.3    82  PRO82      -0.2116
     41  CA        40.5230   12.5770   43.0540 C.3    82  PRO82       0.1372
     42  C         39.5100   13.6940   43.1840 C.2    82  PRO82       0.2244
     43  O         39.4110   14.2110   44.3340 O.2    82  PRO82      -0.2868
     44  CB        41.9410   13.0700   42.9060 C.3    82  PRO82       0.0268
     45  CG        42.3080   12.8240   41.4750 C.3    82  PRO82       0.0207
     46  CD        41.3850   11.7490   40.9350 C.3    82  PRO82       0.0892
     47  N         36.3900   11.4720   44.3050 N.3    85  LEU85      -0.1245
     48  CA        36.7750   10.4690   45.3410 C.3    85  LEU85       0.1561
     49  C         36.1370    9.1110   45.0120 C.2    85  LEU85       0.2260
     50  O         35.4330    8.5440   45.8690 O.2    85  LEU85      -0.2867
     51  CB        36.4540   11.0760   46.7180 C.3    85  LEU85       0.0270
     52  CG        37.5630   12.0270   47.2390 C.3    85  LEU85       0.0019
     53  CD1       37.3010   12.5260   48.6600 C.3    85  LEU85       0.0001
     54  CD2       38.8320   11.1840   47.2270 C.3    85  LEU85       0.0001
     55  N         35.8680    7.7840   62.0290 N.3   168  VAL168     -0.1231
     56  CA        37.2620    7.6910   61.5370 C.3   168  VAL168      0.1692
     57  C         37.7750    9.1450   61.4100 C.2   168  VAL168      0.2592
     58  O         36.9240   10.0550   61.4460 O.2   168  VAL168     -0.2718
     59  CB        37.4030    6.8460   60.2630 C.3   168  VAL168      0.0266
     60  CG1       36.7970    5.4520   60.4270 C.3   168  VAL168      0.0020
     61  CG2       36.8010    7.4810   59.0160 C.3   168  VAL168      0.0020
     62  N         39.0600    9.2940   61.3070 N.am  169  CYS169     -0.1956
     63  CA        39.6200   10.6890   61.1600 C.3   169  CYS169      0.1843
     64  C         40.8120   10.6320   60.2520 C.2   169  CYS169      0.2625
     65  O         41.1050    9.5360   59.7060 O.2   169  CYS169     -0.2714
     66  CB        39.8090   11.3010   62.5340 C.3   169  CYS169      0.0997
     67  SG        39.9160   13.1340   62.4740 S.3   169  CYS169     -0.0797
     68  N         41.5090   11.7390   60.1100 N.am  170  PHE170     -0.1960
     69  CA        42.7320   11.7760   59.2110 C.3   170  PHE170      0.1771
     70  C         43.7330   10.7650   59.7270 C.2   170  PHE170      0.2620
     71  O         43.8760   10.7270   60.9430 O.2   170  PHE170     -0.2715
     72  CB        43.2280   13.2640   59.2150 C.3   170  PHE170      0.0574
     73  CG        42.1610   14.1580   58.6320 C.ar  170  PHE170     -0.0200
     74  CD1       41.4730   15.0270   59.5160 C.ar  170  PHE170     -0.0042
     75  CD2       41.7670   14.0150   57.3190 C.ar  170  PHE170     -0.0042
     76  CE1       40.4590   15.8430   59.0180 C.ar  170  PHE170     -0.0003
     77  CE2       40.7370   14.8660   56.7930 C.ar  170  PHE170     -0.0003
     78  CZ        40.0720   15.7220   57.6750 C.ar  170  PHE170     -0.0000
     79  N         44.4030   10.0200   58.8530 N.am  171  GLY171     -0.1940
     80  CA        45.3280    8.9940   59.3100 C.3   171  GLY171      0.2014
     81  C         44.6830    7.6160   59.3410 C.2   171  GLY171      0.2639
     82  O         45.4060    6.5920   59.3780 O.2   171  GLY171     -0.2714
     83  N         43.3620    7.5970   59.3160 N.am  172  ASP172     -0.1957
     84  CA        42.6240    6.3270   59.2900 C.3   172  ASP172      0.1840
     85  C         42.4310    5.8500   57.8790 C.2   172  ASP172      0.2622
     86  O         42.1240    4.6680   57.7130 O.2   172  ASP172     -0.2715
     87  CB        41.2810    6.4360   60.0450 C.3   172  ASP172      0.1450
     88  CG        41.4790    6.5480   61.5470 C.2   172  ASP172      0.3671
     89  OD1       42.3990    5.9210   62.1020 O.co2 172  ASP172     -0.2456
     90  OD2       40.6720    7.2650   62.1700 O.co2 172  ASP172     -0.2456
     91  N         42.5880    6.6950   56.8760 N.am  173  SER173     -0.1950
     92  CA        42.3800    6.2460   55.4950 C.3   173  SER173      0.1924
     93  C         43.2040    4.9900   55.1910 C.2   173  SER173      0.2314
     94  O         44.3340    4.9420   55.6730 O.2   173  SER173     -0.2863
     95  CB        42.7450    7.3230   54.4610 C.3   173  SER173      0.2116
     96  OG        41.9060    8.5040   54.6830 O.3   173  SER173     -0.2180
     97  N         38.7790    2.6630   54.5490 N.3   187  ALA187     -0.1231
     98  CA        38.4630    4.0750   54.9520 C.3   187  ALA187      0.1694
     99  C         38.9360    5.0630   53.8970 C.2   187  ALA187      0.2593
    100  O         40.0970    5.0100   53.4930 O.2   187  ALA187     -0.2718
    101  CB        39.0770    4.3150   56.3080 C.3   187  ALA187      0.0304
    102  N         38.0180    5.8960   53.4160 N.am  188  SER188     -0.1938
    103  CA        38.2890    6.8350   52.3590 C.3   188  SER188      0.2055
    104  C         38.0990    8.2930   52.7060 C.2   188  SER188      0.2643
    105  O         39.0950    9.0800   52.5650 O.2   188  SER188     -0.2714
    106  CB        37.3370    6.4740   51.1760 C.3   188  SER188      0.2130
    107  OG        37.5620    7.3450   50.0750 O.3   188  SER188     -0.2179
    108  N         36.9140    8.7300   53.1370 N.am  189  PHE189     -0.1959
    109  CA        36.7220   10.1640   53.4460 C.3   189  PHE189      0.1771
    110  C         35.6660   10.4550   54.4950 C.2   189  PHE189      0.2619
    111  O         34.7800    9.6620   54.8170 O.2   189  PHE189     -0.2715
    112  CB        36.4310   10.9270   52.1350 C.3   189  PHE189      0.0574
    113  CG        35.1270   10.6410   51.4420 C.ar  189  PHE189     -0.0200
    114  CD1       35.0650    9.7120   50.4120 C.ar  189  PHE189     -0.0042
    115  CD2       33.9700   11.3600   51.8030 C.ar  189  PHE189     -0.0042
    116  CE1       33.8610    9.5160   49.7190 C.ar  189  PHE189     -0.0003
    117  CE2       32.7660   11.1510   51.1290 C.ar  189  PHE189     -0.0003
    118  CZ        32.7190   10.2200   50.0530 C.ar  189  PHE189     -0.0000
    119  N         35.8090   11.6650   55.0570 N.am  190  VAL190     -0.1963
    120  CA        34.8490   12.1870   56.0770 C.3   190  VAL190      0.1727
    121  C         34.2060   13.4690   55.4770 C.2   190  VAL190      0.2616
    122  O         34.7670   13.9530   54.4780 O.2   190  VAL190     -0.2715
    123  CB        35.4730   12.4870   57.4470 C.3   190  VAL190      0.0290
    124  CG1       36.0680   11.2280   58.1220 C.3   190  VAL190      0.0023
    125  CG2       36.5280   13.5650   57.4230 C.3   190  VAL190      0.0023
    126  N         33.1550   13.9260   56.0910 N.am  191  ARG191     -0.1963
    127  CA        32.4460   15.1390   55.6650 C.3   191  ARG191      0.1729
    128  C         31.9770   15.8950   56.9210 C.2   191  ARG191      0.2617
    129  O         31.4540   15.3020   57.8780 O.2   191  ARG191     -0.2715
    130  CB        31.2440   14.9540   54.7580 C.3   191  ARG191      0.0348
    131  CG        31.4070   14.3450   53.4020 C.3   191  ARG191      0.0492
    132  CD        30.0390   13.9930   52.8140 C.3   191  ARG191      0.2205
    133  NE        29.7690   12.5980   53.1730 N.pl3 191  ARG191     -0.0865
    134  CZ        28.5620   12.0210   53.1720 C.cat 191  ARG191      0.5346
    135  NH1       27.4500   12.7060   52.8470 N.pl3 191  ARG191      0.1354
    136  NH2       28.4300   10.7440   53.4730 N.pl3 191  ARG191      0.1354
    137  N         32.2010   17.1930   56.8640 N.am  192  GLY192     -0.1940
    138  CA        31.8520   18.0620   58.0220 C.3   192  GLY192      0.2014
    139  C         32.8810   17.8710   59.1360 C.2   192  GLY192      0.2639
    140  O         32.4870   18.1130   60.3130 O.2   192  GLY192     -0.2714
    141  N         34.0810   17.4640   58.8280 N.am  193  GLY193     -0.1954
    142  CA        35.1020   17.2320   59.9280 C.3   193  GLY193      0.1869
    143  C         34.9480   15.7430   60.3250 C.2   193  GLY193      0.2309
    144  O         33.9600   15.1240   59.8970 O.2   193  GLY193     -0.2863
    145  N         26.6850   13.2390   58.8370 N.3   199  TYR199     -0.1241
    146  CA        27.4710   12.7300   57.7950 C.3   199  TYR199      0.1605
    147  C         28.1470   11.4140   58.1950 C.2   199  TYR199      0.2264
    148  O         29.1200   11.4150   58.9540 O.2   199  TYR199     -0.2867
    149  CB        28.5100   13.6630   57.1680 C.3   199  TYR199      0.0534
    150  CG        27.9840   15.0180   56.7560 C.ar  199  TYR199     -0.0201
    151  CD1       27.0810   15.1480   55.7070 C.ar  199  TYR199     -0.0009
    152  CD2       28.3970   16.1480   57.4740 C.ar  199  TYR199     -0.0009
    153  CE1       26.6080   16.4160   55.3490 C.ar  199  TYR199      0.0417
    154  CE2       27.9420   17.4420   57.0860 C.ar  199  TYR199      0.0417
    155  CZ        27.0220   17.5360   56.0580 C.ar  199  TYR199      0.1957
    156  OH        26.6040   18.8050   55.7070 O.3   199  TYR199     -0.2866
@<TRIPOS>BOND
     1    31    30    2
     2    28    29    1
     3    30    29    1
     4    46    45    1
     5    46    40    1
     6    29    32    1
     7    45    44    1
     8    40    41    1
     9    32    33    1
    10    44    41    1
    11    41    42    1
    12    33    34   ar
    13    33    35   ar
    14    42    43    2
    15    34    36   ar
    16    35    37   ar
    17    36    38   ar
    18    47    48    1
    19    37    38   ar
    20    38    39    1
    21    49    48    1
    22    49    50    2
    23    48    51    1
    24    51    52    1
    25    54    52    1
    26    52    53    1
    27    18    19    1
    28    19    22    1
    29    19    20    1
    30    22    23    1
    31    20    21    2
    32   116   118   ar
    33   116   114   ar
    34    23    24   ar
    35    23    25   ar
    36   118   117   ar
    37   107   106    1
    38   114   113   ar
    39    24    26   ar
    40    25    27   ar
    41   117   115   ar
    42   106   103    1
    43   113   115   ar
    44   113   112    1
    45    26    27   ar
    46   112   109    1
    47   103   104    1
    48   103   102    1
    49   105   104    2
    50   104   108   am
    51   132   133    1
    52   132   131    1
    53   135   134    1
    54   108   109    1
    55   134   133    2
    56   134   136    1
    57     9    11   ar
    58     9     7   ar
    59    11    10   ar
    60   131   130    1
    61   102    99   am
    62   109   110    1
    63   100    99    2
    64    99    98    1
    65    17    16    1
    66     7     6   ar
    67    10     8   ar
    68    95    96    1
    69    95    92    1
    70   122   121    2
    71   110   111    2
    72   110   119   am
    73    97    98    1
    74   130   127    1
    75    98   101    1
    76    16    13    1
    77   119   120    1
    78    93    92    1
    79    93    94    2
    80   153   151   ar
    81   153   155   ar
    82   121   120    1
    83   121   126   am
    84     6     8   ar
    85     6     5    1
    86    92    91    1
    87   127   126    1
    88   127   128    1
    89   156   155    1
    90   151   150   ar
    91   155   154   ar
    92   120   123    1
    93    13    14    1
    94    13    12    1
    95     5     2    1
    96   150   149    1
    97   150   152   ar
    98    77    75   ar
    99    77    78   ar
   100     4     3    2
   101   137   128   am
   102   137   138    1
   103    91    85   am
   104   128   129    2
   105    14    15    2
   106   154   152   ar
   107    12     3   am
   108   149   146    1
   109     3     2    1
   110    75    73   ar
   111   125   123    1
   112   123   124    1
   113    78    76   ar
   114    86    85    2
   115     2     1    1
   116   146   147    1
   117   146   145    1
   118    85    84    1
   119   138   139    1
   120   147   148    2
   121    73    72    1
   122    73    74   ar
   123   141   139   am
   124   141   142    1
   125    79    80    1
   126    79    70   am
   127    61    59    1
   128    76    74   ar
   129   139   140    2
   130    69    72    1
   131    69    70    1
   132    69    68    1
   133    84    83    1
   134    84    87    1
   135    80    81    1
   136    83    81   am
   137    81    82    2
   138    65    64    2
   139    70    71    2
   140   144   143    2
   141   142   143    1
   142    87    88    1
   143    68    64   am
   144    64    63    1
   145    59    60    1
   146    59    56    1
   147    63    62    1
   148    63    66    1
   149    62    57   am
   150    57    58    2
   151    57    56    1
   152    56    55    1
   153    88    89   ar
   154    88    90   ar
   155    67    66    1
