@<TRIPOS>MOLECULE
tmp/1hnnA01.pdb
 156 146 0 0 0
SMALL
GASTEIGER

@<TRIPOS>ATOM
      1  N         37.6190   48.6360   16.2600 N.3    14  TYR14      -0.1241
      2  CA        36.2310   48.3210   16.4790 C.3    14  TYR14       0.1605
      3  C         35.5630   48.1920   15.1000 C.2    14  TYR14       0.2264
      4  O         34.9600   47.1620   14.7830 O.2    14  TYR14      -0.2867
      5  CB        35.5850   49.4350   17.2980 C.3    14  TYR14       0.0534
      6  CG        34.0990   49.2710   17.4920 C.ar   14  TYR14      -0.0201
      7  CD1       33.5850   48.2760   18.3220 C.ar   14  TYR14      -0.0009
      8  CD2       33.2010   50.1130   16.8360 C.ar   14  TYR14      -0.0009
      9  CE1       32.2060   48.1300   18.4940 C.ar   14  TYR14       0.0417
     10  CE2       31.8280   49.9730   16.9990 C.ar   14  TYR14       0.0417
     11  CZ        31.3430   48.9850   17.8250 C.ar   14  TYR14       0.1957
     12  OH        29.9910   48.8560   17.9660 O.3    14  TYR14      -0.2866
     13  N         33.7180   44.8980   13.3600 N.3    18  ASN18      -0.1225
     14  CA        32.2710   44.8220   13.1840 C.3    18  ASN18       0.1785
     15  C         31.6170   45.3920   11.9340 C.2    18  ASN18       0.2597
     16  O         30.4180   45.1760   11.7120 O.2    18  ASN18      -0.2718
     17  CB        31.6170   45.4330   14.4200 C.3    18  ASN18       0.1169
     18  CG        32.1170   44.7880   15.6970 C.2    18  ASN18       0.2627
     19  OD1       31.8070   43.6270   15.9680 O.2    18  ASN18      -0.2716
     20  ND2       32.9210   45.5190   16.4710 N.am   18  ASN18      -0.0877
     21  N         32.3780   46.1000   11.1090 N.am   19  TYR19      -0.1976
     22  CA        31.7800   46.6880    9.9270 C.3    19  TYR19       0.1639
     23  C         32.5310   46.4640    8.6270 C.2    19  TYR19       0.2290
     24  O         32.2540   47.1130    7.6150 O.2    19  TYR19      -0.2864
     25  CB        31.5470   48.1700   10.1820 C.3    19  TYR19       0.0560
     26  CG        30.5780   48.3680   11.3190 C.ar   19  TYR19      -0.0198
     27  CD1       31.0280   48.5510   12.6340 C.ar   19  TYR19      -0.0009
     28  CD2       29.2050   48.3020   11.0940 C.ar   19  TYR19      -0.0009
     29  CE1       30.1240   48.6630   13.6960 C.ar   19  TYR19       0.0417
     30  CE2       28.3010   48.4100   12.1390 C.ar   19  TYR19       0.0417
     31  CZ        28.7650   48.5890   13.4340 C.ar   19  TYR19       0.1957
     32  OH        27.8480   48.6860   14.4490 O.3    19  TYR19      -0.2866
     33  N         31.2070   40.5230    8.4760 N.3    23  ARG23      -0.1245
     34  CA        30.0130   41.1810    9.0040 C.3    23  ARG23       0.1563
     35  C         29.6750   42.4450    8.2530 C.2    23  ARG23       0.2260
     36  O         28.5240   42.8740    8.2400 O.2    23  ARG23      -0.2867
     37  CB        30.1930   41.5240   10.4800 C.3    23  ARG23       0.0307
     38  CG        30.2670   40.3280   11.3960 C.3    23  ARG23       0.0489
     39  CD        30.5750   40.7760   12.8120 C.3    23  ARG23       0.2205
     40  NE        30.6150   39.6430   13.7280 N.pl3  23  ARG23      -0.0865
     41  CZ        30.6790   39.7530   15.0510 C.cat  23  ARG23       0.5346
     42  NH1       30.7090   40.9530   15.6280 N.pl3  23  ARG23       0.1354
     43  NH2       30.7130   38.6560   15.7880 N.pl3  23  ARG23       0.1354
     44  N         23.8830   40.2060    9.0620 N.3    32  VAL32      -0.1231
     45  CA        23.4100   41.1870   10.0430 C.3    32  VAL32       0.1692
     46  C         23.2340   42.5710    9.4760 C.2    32  VAL32       0.2592
     47  O         22.2850   43.2720    9.8420 O.2    32  VAL32      -0.2718
     48  CB        24.3830   41.4040   11.2310 C.3    32  VAL32       0.0266
     49  CG1       23.7120   41.0050   12.5230 C.3    32  VAL32       0.0020
     50  CG2       25.6800   40.6800   11.0030 C.3    32  VAL32       0.0020
     51  N         24.1830   42.9780    8.6320 N.am   33  GLY33      -0.1957
     52  CA        24.1450   44.3020    8.0400 C.3    33  GLY33       0.1869
     53  C         22.8120   44.5330    7.3780 C.2    33  GLY33       0.2309
     54  O         22.0790   45.4650    7.7380 O.2    33  GLY33      -0.2863
     55  N         19.9600   44.6390   10.0410 N.3    36  LYS36      -0.1245
     56  CA        19.9260   45.8960   10.7820 C.3    36  LYS36       0.1561
     57  C         19.3090   47.0460    9.9800 C.2    36  LYS36       0.2260
     58  O         18.3660   47.7070   10.4360 O.2    36  LYS36      -0.2867
     59  CB        21.3410   46.2930   11.2040 C.3    36  LYS36       0.0271
     60  CG        21.7900   45.7260   12.5300 C.3    36  LYS36       0.0035
     61  CD        23.1480   46.2800   12.9230 C.3    36  LYS36       0.0206
     62  CE        24.2700   45.6010   12.1610 C.3    36  LYS36       0.1093
     63  NZ        25.5860   46.1480   12.5800 N.3    36  LYS36      -0.1314
     64  N         27.1580   50.5050    3.1410 N.3   105  TYR105     -0.1241
     65  CA        25.9790   50.7480    3.9600 C.3   105  TYR105      0.1605
     66  C         25.0410   51.7960    3.3680 C.2   105  TYR105      0.2264
     67  O         23.8220   51.6170    3.3820 O.2   105  TYR105     -0.2867
     68  CB        26.3900   51.1430    5.3860 C.3   105  TYR105      0.0534
     69  CG        26.9870   50.0010    6.1920 C.ar  105  TYR105     -0.0201
     70  CD1       28.3340   49.6710    6.0810 C.ar  105  TYR105     -0.0009
     71  CD2       26.1850   49.2190    7.0240 C.ar  105  TYR105     -0.0009
     72  CE1       28.8730   48.5960    6.7730 C.ar  105  TYR105      0.0417
     73  CE2       26.7100   48.1370    7.7230 C.ar  105  TYR105      0.0417
     74  CZ        28.0540   47.8300    7.5940 C.ar  105  TYR105      0.1957
     75  OH        28.5810   46.7510    8.2880 O.3   105  TYR105     -0.2866
     76  N         24.0860   49.1770   20.2010 N.3   161  PHE161     -0.1241
     77  CA        25.1690   48.5490   20.9540 C.3   161  PHE161      0.1605
     78  C         25.8190   49.4480   22.0130 C.2   161  PHE161      0.2264
     79  O         27.0380   49.4340   22.1890 O.2   161  PHE161     -0.2867
     80  CB        26.2490   48.0400   19.9890 C.3   161  PHE161      0.0534
     81  CG        25.7130   47.1940   18.8670 C.ar  161  PHE161     -0.0203
     82  CD1       25.3920   47.7650   17.6340 C.ar  161  PHE161     -0.0042
     83  CD2       25.4980   45.8340   19.0490 C.ar  161  PHE161     -0.0042
     84  CE1       24.8620   46.9870   16.6000 C.ar  161  PHE161     -0.0003
     85  CE2       24.9670   45.0480   18.0220 C.ar  161  PHE161     -0.0003
     86  CZ        24.6490   45.6260   16.7960 C.ar  161  PHE161     -0.0000
     87  N         24.0440   47.9590   26.7900 N.3   164  GLU164     -0.1231
     88  CA        24.5770   46.6770   27.2540 C.3   164  GLU164      0.1699
     89  C         26.0930   46.5870   27.2200 C.2   164  GLU164      0.2592
     90  O         26.6680   45.6540   27.7680 O.2   164  GLU164     -0.2718
     91  CB        24.0140   45.4860   26.4520 C.3   164  GLU164      0.0402
     92  CG        23.0430   45.8000   25.3000 C.3   164  GLU164      0.1161
     93  CD        23.6960   46.4880   24.1120 C.2   164  GLU164      0.3649
     94  OE1       24.6700   45.9360   23.5490 O.co2 164  GLU164     -0.2457
     95  OE2       23.2220   47.5830   23.7480 O.co2 164  GLU164     -0.2457
     96  N         26.7500   47.5420   26.5820 N.am  165  ALA165     -0.1980
     97  CA        28.2010   47.4990   26.5060 C.3   165  ALA165      0.1597
     98  C         28.8590   48.4990   27.4470 C.2   165  ALA165      0.2287
     99  O         30.0890   48.5840   27.5070 O.2   165  ALA165     -0.2864
    100  CB        28.6480   47.7620   25.0810 C.3   165  ALA165      0.0319
    101  N         23.4690   43.9650   21.3400 N.3   195  ALA195     -0.1245
    102  CA        23.8970   42.5640   21.3830 C.3   195  ALA195      0.1562
    103  C         22.9930   41.7270   22.2890 C.2   195  ALA195      0.2260
    104  O         22.4610   42.2230   23.2690 O.2   195  ALA195     -0.2867
    105  CB        25.3450   42.4750   21.8760 C.3   195  ALA195      0.0290
    106  N         25.6440   38.7270   25.0580 N.3   198  GLU198     -0.1245
    107  CA        27.0730   38.9840   24.8670 C.3   198  GLU198      0.1567
    108  C         27.7310   39.3260   26.2100 C.2   198  GLU198      0.2260
    109  O         27.1560   40.0600   27.0120 O.2   198  GLU198     -0.2867
    110  CB        27.2890   40.1410   23.8710 C.3   198  GLU198      0.0388
    111  CG        28.7140   40.6880   23.8870 C.3   198  GLU198      0.1160
    112  CD        28.9740   41.7540   22.8340 C.2   198  GLU198      0.3649
    113  OE1       29.3700   41.3790   21.7060 O.co2 198  GLU198     -0.2457
    114  OE2       28.7810   42.9560   23.1360 O.co2 198  GLU198     -0.2457
    115  N         33.6680   41.7580   24.1700 N.3   201  TYR201     -0.1241
    116  CA        33.9480   42.0540   22.7690 C.3   201  TYR201      0.1605
    117  C         35.2040   42.9130   22.7750 C.2   201  TYR201      0.2264
    118  O         35.3700   43.7800   23.6420 O.2   201  TYR201     -0.2867
    119  CB        32.7720   42.7710   22.0820 C.3   201  TYR201      0.0534
    120  CG        32.6270   44.2390   22.3870 C.ar  201  TYR201     -0.0201
    121  CD1       33.4010   45.1880   21.7290 C.ar  201  TYR201     -0.0009
    122  CD2       31.7000   44.6810   23.3290 C.ar  201  TYR201     -0.0009
    123  CE1       33.2510   46.5400   22.0030 C.ar  201  TYR201      0.0417
    124  CE2       31.5420   46.0250   23.6070 C.ar  201  TYR201      0.0417
    125  CZ        32.3150   46.9440   22.9440 C.ar  201  TYR201      0.1957
    126  OH        32.1500   48.2750   23.2270 O.3   201  TYR201     -0.2866
    127  N         22.9120   35.0830   15.3190 N.3   237  MET237     -0.1245
    128  CA        24.1680   35.1410   14.5810 C.3   237  MET237      0.1570
    129  C         24.5860   33.8340   13.9420 C.2   237  MET237      0.2261
    130  O         24.7430   32.8210   14.6180 O.2   237  MET237     -0.2867
    131  CB        25.2930   35.6410   15.4800 C.3   237  MET237      0.0387
    132  CG        25.3430   37.1530   15.6040 C.3   237  MET237      0.0595
    133  SD        26.1060   37.9340   14.1650 S.3   237  MET237     -0.1393
    134  CE        26.4340   39.5880   14.7740 C.3   237  MET237      0.0692
    135  N         34.3190   38.5940   19.7320 N.3   246  ASP246     -0.1239
    136  CA        33.3230   38.6410   20.7830 C.3   246  ASP246      0.1674
    137  C         32.5980   37.3150   20.8660 C.2   246  ASP246      0.2266
    138  O         33.0070   36.3280   20.2440 O.2   246  ASP246     -0.2867
    139  CB        32.3160   39.7780   20.5280 C.3   246  ASP246      0.1410
    140  CG        31.5440   39.6120   19.2170 C.2   246  ASP246      0.3668
    141  OD1       31.0910   38.4870   18.9220 O.co2 246  ASP246     -0.2456
    142  OD2       31.3660   40.6150   18.4900 O.co2 246  ASP246     -0.2456
    143  N         28.8890   37.2990   20.7970 N.3   248  VAL248     -0.1245
    144  CA        27.4740   37.6130   20.5920 C.3   248  VAL248      0.1561
    145  C         26.7630   36.3330   20.2260 C.2   248  VAL248      0.2260
    146  O         27.3700   35.4090   19.6760 O.2   248  VAL248     -0.2867
    147  CB        27.2140   38.5690   19.4060 C.3   248  VAL248      0.0252
    148  CG1       26.2550   39.6620   19.8290 C.3   248  VAL248      0.0019
    149  CG2       28.5140   39.1270   18.8640 C.3   248  VAL248      0.0019
    150  N         21.4530   39.5640   17.6870 N.3   251  VAL251     -0.1245
    151  CA        21.3590   41.0200   17.7330 C.3   251  VAL251      0.1561
    152  C         19.8680   41.3060   17.8300 C.2   251  VAL251      0.2260
    153  O         19.0610   40.6060   17.2150 O.2   251  VAL251     -0.2867
    154  CB        21.9350   41.6800   16.4490 C.3   251  VAL251      0.0252
    155  CG1       21.6340   43.1500   16.4470 C.3   251  VAL251      0.0019
    156  CG2       23.4470   41.4690   16.3760 C.3   251  VAL251      0.0019
@<TRIPOS>BOND
     1    64    65    1
     2    66    67    2
     3    66    65    1
     4    65    68    1
     5    68    69    1
     6    70    69   ar
     7    70    72   ar
     8    69    71   ar
     9    72    74   ar
    10    71    73   ar
    11    53    54    2
    12    53    52    1
    13    74    73   ar
    14    74    75    1
    15    24    23    2
    16    52    51    1
    17    36    35    2
    18    35    34    1
    19    33    34    1
    20    23    22    1
    21    51    46   am
    22    34    37    1
    23    44    45    1
    24    46    47    2
    25    46    45    1
    26    22    25    1
    27    22    21    1
    28    57    58    2
    29    57    56    1
    30    55    56    1
    31    45    48    1
    32    25    26    1
    33    37    38    1
    34    56    59    1
    35    50    48    1
    36    28    26   ar
    37    28    30   ar
    38    21    15   am
    39    59    60    1
    40    48    49    1
    41    26    27   ar
    42    38    39    1
    43    16    15    2
    44    15    14    1
    45    30    31   ar
    46    62    63    1
    47    62    61    1
    48    60    61    1
    49    27    29   ar
    50    39    40    1
    51    14    13    1
    52    14    17    1
    53    31    29   ar
    54    31    32    1
    55    40    41    2
    56   129   128    1
    57   129   130    2
    58   133   134    1
    59   133   132    1
    60    17    18    1
    61   128   127    1
    62   128   131    1
    63     4     3    2
    64    41    42    1
    65    41    43    1
    66     3     2    1
    67   131   132    1
    68    18    19    2
    69    18    20   am
    70     1     2    1
    71   156   154    1
    72   155   154    1
    73   154   151    1
    74     2     5    1
    75    84    86   ar
    76    84    82   ar
    77    86    85   ar
    78     8    10   ar
    79     8     6   ar
    80    10    11   ar
    81   153   152    2
    82     5     6    1
    83     6     7   ar
    84    82    81   ar
    85   150   151    1
    86   151   152    1
    87    11    12    1
    88    11     9   ar
    89    85    83   ar
    90     7     9   ar
    91   142   140   ar
    92   149   147    1
    93    81    83   ar
    94    81    80    1
    95   141   140   ar
    96   140   139    1
    97   147   148    1
    98   147   144    1
    99   146   145    2
   100   135   136    1
   101    80    77    1
   102    76    77    1
   103   145   144    1
   104   138   137    2
   105   139   136    1
   106   144   143    1
   107   136   137    1
   108    77    78    1
   109   101   102    1
   110   102   105    1
   111   102   103    1
   112   113   112   ar
   113   121   123   ar
   114   121   120   ar
   115   123   125   ar
   116    78    79    2
   117   119   120    1
   118   119   116    1
   119   103   104    2
   120   120   122   ar
   121   116   117    1
   122   116   115    1
   123   117   118    2
   124   112   114   ar
   125   112   111    1
   126   125   126    1
   127   125   124   ar
   128   122   124   ar
   129    94    93   ar
   130    95    93   ar
   131   110   111    1
   132   110   107    1
   133    93    92    1
   134   107   106    1
   135   107   108    1
   136   100    97    1
   137    92    91    1
   138   108   109    2
   139    91    88    1
   140    97    96    1
   141    97    98    1
   142    96    89   am
   143    87    88    1
   144    89    88    1
   145    89    90    2
   146    98    99    2
