@<TRIPOS>MOLECULE
tmp/1ho5A00.pdb
 163 154 0 0 0
SMALL
GASTEIGER

@<TRIPOS>ATOM
      1  N         18.8220   19.0770   88.0550 N.3    91  ASN91      -0.1225
      2  CA        19.0690   19.2790   86.6240 C.3    91  ASN91       0.1785
      3  C         18.1530   18.4520   85.7310 C.2    91  ASN91       0.2597
      4  O         17.7300   18.9290   84.6740 O.2    91  ASN91      -0.2718
      5  CB        20.5330   19.0080   86.2580 C.3    91  ASN91       0.1169
      6  CG        21.0050   17.6440   86.6900 C.2    91  ASN91       0.2627
      7  OD1       20.8930   17.2590   87.8780 O.2    91  ASN91      -0.2716
      8  ND2       21.5650   16.9020   85.7460 N.am   91  ASN91      -0.0877
      9  N         17.8480   17.2150   86.1280 N.am   92  HIS92      -0.1975
     10  CA        16.9580   16.4350   85.2780 C.3    92  HIS92       0.1656
     11  C         15.5410   16.9720   85.2320 C.2    92  HIS92       0.2291
     12  O         14.7510   16.4520   84.4940 O.2    92  HIS92      -0.2864
     13  CB        16.9540   14.9650   85.6680 C.3    92  HIS92       0.0771
     14  CG        18.1780   14.2590   85.2300 C.ar   92  HIS92       0.0820
     15  ND1       18.2970   13.7060   83.9780 N.ar   92  HIS92      -0.2267
     16  CD2       19.3980   14.1580   85.8140 C.ar   92  HIS92       0.1154
     17  CE1       19.5440   13.3000   83.8030 C.ar   92  HIS92       0.1986
     18  NE2       20.2310   13.5660   84.9050 N.ar   92  HIS92      -0.2212
     19  N         14.9910   19.4180   83.9300 N.3    94  PHE94      -0.1227
     20  CA        15.0840   20.1840   82.6710 C.3    94  PHE94       0.1736
     21  C         15.2780   19.2540   81.4980 C.2    94  PHE94       0.2595
     22  O         15.7560   19.6600   80.4330 O.2    94  PHE94      -0.2718
     23  CB        16.2250   21.2190   82.7400 C.3    94  PHE94       0.0547
     24  CG        15.9030   22.3930   83.6080 C.ar   94  PHE94      -0.0202
     25  CD1       15.1250   23.4210   83.1180 C.ar   94  PHE94      -0.0042
     26  CD2       16.3160   22.4280   84.9640 C.ar   94  PHE94      -0.0042
     27  CE1       14.7390   24.4870   83.9270 C.ar   94  PHE94      -0.0003
     28  CE2       15.9470   23.4830   85.7870 C.ar   94  PHE94      -0.0003
     29  CZ        15.1580   24.5180   85.2830 C.ar   94  PHE94      -0.0000
     30  N         14.9230   17.9900   81.7150 N.am   95  ASP95      -0.1974
     31  CA        15.0030   16.9520   80.6820 C.3    95  ASP95       0.1709
     32  C         13.8470   17.1280   79.6860 C.2    95  ASP95       0.2293
     33  O         13.9110   16.6780   78.5350 O.2    95  ASP95      -0.2864
     34  CB        14.9000   15.5630   81.3040 C.3    95  ASP95       0.1436
     35  CG        16.2290   15.0480   81.8250 C.2    95  ASP95       0.3671
     36  OD1       17.1970   15.8220   81.7960 O.co2  95  ASP95      -0.2456
     37  OD2       16.3120   13.8690   82.2540 O.co2  95  ASP95      -0.2456
     38  N         25.6120   20.5240   80.8720 N.3   153  ILE153     -0.1231
     39  CA        25.5090   19.1350   80.4670 C.3   153  ILE153      0.1692
     40  C         24.1380   18.7660   79.8880 C.2   153  ILE153      0.2593
     41  O         23.9390   17.6460   79.4140 O.2   153  ILE153     -0.2718
     42  CB        25.8650   18.1750   81.6350 C.3   153  ILE153      0.0266
     43  CG1       24.9110   18.3740   82.8100 C.3   153  ILE153      0.0019
     44  CG2       27.3090   18.4290   82.1040 C.3   153  ILE153      0.0020
     45  CD1       25.3740   17.6570   84.0510 C.3   153  ILE153      0.0001
     46  N         23.2130   19.7150   79.8930 N.am  154  GLY154     -0.1942
     47  CA        21.8860   19.4290   79.3850 C.3   154  GLY154      0.2014
     48  C         21.6080   19.8350   77.9410 C.2   154  GLY154      0.2638
     49  O         22.5010   20.2950   77.2130 O.2   154  GLY154     -0.2714
     50  N         20.3550   19.6410   77.5220 N.am  155  ASN155     -0.1972
     51  CA        19.9370   19.9810   76.1720 C.3   155  ASN155      0.1688
     52  C         20.0550   21.5010   75.9230 C.2   155  ASN155      0.2292
     53  O         19.3300   22.3050   76.5130 O.2   155  ASN155     -0.2864
     54  CB        18.4950   19.4900   75.9440 C.3   155  ASN155      0.1181
     55  CG        17.9680   19.8560   74.5720 C.2   155  ASN155      0.2629
     56  OD1       18.7210   19.8750   73.5950 O.2   155  ASN155     -0.2716
     57  ND2       16.6740   20.1330   74.4880 N.am  155  ASN155     -0.0877
     58  N         16.9610   24.0750   75.5850 N.3   158  TYR158     -0.1241
     59  CA        16.1370   24.4710   76.7220 C.3   158  TYR158      0.1605
     60  C         16.6320   25.6940   77.4570 C.2   158  TYR158      0.2264
     61  O         15.8590   26.4250   78.0660 O.2   158  TYR158     -0.2867
     62  CB        16.0260   23.3240   77.7260 C.3   158  TYR158      0.0534
     63  CG        15.2510   22.1480   77.1960 C.ar  158  TYR158     -0.0201
     64  CD1       14.2330   22.3290   76.2410 C.ar  158  TYR158     -0.0009
     65  CD2       15.5100   20.8490   77.6570 C.ar  158  TYR158     -0.0009
     66  CE1       13.4890   21.2320   75.7530 C.ar  158  TYR158      0.0417
     67  CE2       14.7750   19.7520   77.1820 C.ar  158  TYR158      0.0417
     68  CZ        13.7720   19.9530   76.2300 C.ar  158  TYR158      0.1957
     69  OH        13.0790   18.8710   75.7460 O.3   158  TYR158     -0.2866
     70  N         27.2990    3.1940   83.4510 N.3   350  ARG350     -0.1245
     71  CA        28.0480    4.4420   83.3960 C.3   350  ARG350      0.1563
     72  C         29.5600    4.2150   83.5390 C.2   350  ARG350      0.2260
     73  O         30.3510    4.7010   82.7250 O.2   350  ARG350     -0.2867
     74  CB        27.5520    5.4000   84.4910 C.3   350  ARG350      0.0307
     75  CG        27.6920    6.8690   84.1330 C.3   350  ARG350      0.0489
     76  CD        28.0970    7.7050   85.3330 C.3   350  ARG350      0.2205
     77  NE        27.0880    8.6880   85.7220 N.pl3 350  ARG350     -0.0865
     78  CZ        27.3160    9.6870   86.5740 C.cat 350  ARG350      0.5346
     79  NH1       28.5180    9.8310   87.1210 N.pl3 350  ARG350      0.1354
     80  NH2       26.3490   10.5420   86.8840 N.pl3 350  ARG350      0.1354
     81  N         31.1300    5.5800   80.2010 N.3   354  ARG354     -0.1245
     82  CA        31.6900    6.8920   80.5240 C.3   354  ARG354      0.1563
     83  C         33.2310    6.8680   80.4410 C.2   354  ARG354      0.2260
     84  O         33.8850    7.9130   80.3540 O.2   354  ARG354     -0.2867
     85  CB        31.2370    7.3010   81.9380 C.3   354  ARG354      0.0307
     86  CG        30.9650    8.7970   82.1490 C.3   354  ARG354      0.0489
     87  CD        29.7440    9.2600   81.3720 C.3   354  ARG354      0.2205
     88  NE        28.4590    9.0260   82.0340 N.pl3 354  ARG354     -0.0865
     89  CZ        27.8410    9.9030   82.8220 C.cat 354  ARG354      0.5346
     90  NH1       28.3810   11.0790   83.0780 N.pl3 354  ARG354      0.1354
     91  NH2       26.6430    9.6320   83.3050 N.pl3 354  ARG354      0.1354
     92  N         27.0980   10.3780   73.1490 N.3   380  SER380     -0.1217
     93  CA        27.6880   10.5990   74.4690 C.3   380  SER380      0.1889
     94  C         27.5030    9.3350   75.3000 C.2   380  SER380      0.2288
     95  O         26.4610    8.7040   75.2480 O.2   380  SER380     -0.2866
     96  CB        27.0190   11.7800   75.1910 C.3   380  SER380      0.2089
     97  OG        27.2210   13.0090   74.5110 O.3   380  SER380     -0.2183
     98  N         27.2160    9.4320   78.1890 N.3   382  GLY382     -0.1210
     99  CA        26.2240    9.9230   79.1340 C.3   382  GLY382      0.1956
    100  C         24.8300    9.7830   78.5600 C.2   382  GLY382      0.2612
    101  O         23.8430   10.2120   79.1610 O.2   382  GLY382     -0.2717
    102  N         24.7540    9.1890   77.3740 N.am  383  GLY383     -0.1956
    103  CA        23.4710    8.9780   76.7400 C.3   383  GLY383      0.1869
    104  C         23.0350    7.5440   76.9520 C.2   383  GLY383      0.2309
    105  O         21.8830    7.2040   76.7280 O.2   383  GLY383     -0.2863
    106  N         22.0090    5.0830   79.3530 N.3   385  ARG385     -0.1245
    107  CA        21.5630    5.0380   80.7360 C.3   385  ARG385      0.1563
    108  C         21.4890    3.6520   81.3470 C.2   385  ARG385      0.2260
    109  O         21.4360    3.5070   82.5710 O.2   385  ARG385     -0.2867
    110  CB        20.2160    5.7520   80.8490 C.3   385  ARG385      0.0307
    111  CG        20.2370    7.1460   80.2170 C.3   385  ARG385      0.0489
    112  CD        20.7060    8.2520   81.1630 C.3   385  ARG385      0.2205
    113  NE        21.9190    7.9170   81.9020 N.pl3 385  ARG385     -0.0865
    114  CZ        22.4770    8.7000   82.8220 C.cat 385  ARG385      0.5346
    115  NH1       21.9340    9.8800   83.1220 N.pl3 385  ARG385      0.1354
    116  NH2       23.5760    8.2890   83.4570 N.pl3 385  ARG385      0.1354
    117  N         15.9720    9.7940   77.2920 N.3   404  PHE404     -0.1241
    118  CA        15.8720   11.2160   77.0630 C.3   404  PHE404      0.1605
    119  C         14.9560   11.6600   75.9320 C.2   404  PHE404      0.2264
    120  O         14.6010   12.8320   75.8540 O.2   404  PHE404     -0.2867
    121  CB        17.2720   11.7730   76.8260 C.3   404  PHE404      0.0534
    122  CG        18.1750   11.6850   78.0240 C.ar  404  PHE404     -0.0203
    123  CD1       17.9480   12.4840   79.1470 C.ar  404  PHE404     -0.0042
    124  CD2       19.2850   10.8480   78.0150 C.ar  404  PHE404     -0.0042
    125  CE1       18.8240   12.4460   80.2280 C.ar  404  PHE404     -0.0003
    126  CE2       20.1640   10.8050   79.0930 C.ar  404  PHE404     -0.0003
    127  CZ        19.9400   11.6000   80.1940 C.ar  404  PHE404     -0.0000
    128  N         15.8180   11.6180   72.7510 N.3   406  ASN406     -0.1240
    129  CA        16.6480   12.3450   71.7800 C.3   406  ASN406      0.1653
    130  C         16.2390   11.9670   70.3350 C.2   406  ASN406      0.2266
    131  O         15.5860   10.9400   70.1030 O.2   406  ASN406     -0.2867
    132  CB        18.1300   12.0130   72.0020 C.3   406  ASN406      0.1155
    133  CG        18.7730   12.8300   73.1330 C.2   406  ASN406      0.2627
    134  OD1       19.9140   12.5770   73.4990 O.2   406  ASN406     -0.2716
    135  ND2       18.0500   13.8140   73.6670 N.am  406  ASN406     -0.0877
    136  N         30.2110   12.4890   80.8490 N.3   433  GLY433     -0.1210
    137  CA        29.0830   12.0600   80.0520 C.3   433  GLY433      0.1956
    138  C         29.3810   12.3980   78.6100 C.2   433  GLY433      0.2611
    139  O         28.8640   11.7700   77.6900 O.2   433  GLY433     -0.2717
    140  N         30.2280   13.4050   78.4240 N.am  434  ALA434     -0.1979
    141  CA        30.6120   13.8560   77.0950 C.3   434  ALA434      0.1597
    142  C         31.5970   12.8750   76.4560 C.2   434  ALA434      0.2287
    143  O         31.9710   13.0250   75.2900 O.2   434  ALA434     -0.2864
    144  CB        31.2210   15.2530   77.1750 C.3   434  ALA434      0.0319
    145  N         20.9100   16.1910   70.4270 N.3   473  PHE473     -0.1241
    146  CA        21.5720   16.6600   71.6370 C.3   473  PHE473      0.1605
    147  C         23.0160   17.0070   71.2770 C.2   473  PHE473      0.2264
    148  O         23.4320   18.1730   71.3310 O.2   473  PHE473     -0.2867
    149  CB        21.5630   15.5460   72.7030 C.3   473  PHE473      0.0534
    150  CG        22.3210   15.8960   73.9680 C.ar  473  PHE473     -0.0203
    151  CD1       21.7670   16.7610   74.9240 C.ar  473  PHE473     -0.0042
    152  CD2       23.6140   15.4090   74.1820 C.ar  473  PHE473     -0.0042
    153  CE1       22.4950   17.1370   76.0650 C.ar  473  PHE473     -0.0003
    154  CE2       24.3440   15.7820   75.3180 C.ar  473  PHE473     -0.0003
    155  CZ        23.7780   16.6510   76.2580 C.ar  473  PHE473     -0.0000
    156  N         27.0780   18.5900   75.7500 N.3   479  ASP479     -0.1239
    157  CA        28.3990   18.1280   76.1900 C.3   479  ASP479      0.1674
    158  C         29.4660   18.9260   75.4430 C.2   479  ASP479      0.2266
    159  O         30.6320   18.5210   75.3410 O.2   479  ASP479     -0.2867
    160  CB        28.5890   16.6290   75.9380 C.3   479  ASP479      0.1410
    161  CG        27.8660   15.7790   76.9570 C.2   479  ASP479      0.3668
    162  OD1       27.4980   16.3300   77.9990 O.co2 479  ASP479     -0.2456
    163  OD2       27.6690   14.5680   76.7400 O.co2 479  ASP479     -0.2456
@<TRIPOS>BOND
     1   131   130    2
     2   130   129    1
     3   145   146    1
     4   147   148    2
     5   147   146    1
     6   146   149    1
     7   129   132    1
     8   129   128    1
     9   132   133    1
    10   149   150    1
    11   133   134    2
    12   133   135   am
    13    92    93    1
    14    56    55    2
    15   150   152   ar
    16   150   151   ar
    17   152   154   ar
    18    93    96    1
    19    93    94    1
    20    57    55   am
    21    97    96    1
    22    55    54    1
    23   151   153   ar
    24    95    94    2
    25   143   142    2
    26   154   155   ar
    27   159   158    2
    28   158   157    1
    29    58    59    1
    30    69    68    1
    31   156   157    1
    32    66    68   ar
    33    66    64   ar
    34   120   119    2
    35    52    51    1
    36    52    53    2
    37   119   118    1
    38   160   157    1
    39   160   161    1
    40    54    51    1
    41   153   155   ar
    42    51    50    1
    43    68    67   ar
    44    64    63   ar
    45   142   141    1
    46    59    60    1
    47    59    62    1
    48   105   104    2
    49   103   104    1
    50   103   102    1
    51   163   161   ar
    52   121   118    1
    53   121   122    1
    54   161   162   ar
    55   118   117    1
    56   141   144    1
    57   141   140    1
    58    67    65   ar
    59    63    65   ar
    60    63    62    1
    61    49    48    2
    62   102   100   am
    63    60    61    2
    64    50    48   am
    65   139   138    2
    66    48    47    1
    67   124   122   ar
    68   124   126   ar
    69   122   123   ar
    70    98    99    1
    71   140   138   am
    72    33    32    2
    73   100    99    1
    74   100   101    2
    75   138   137    1
    76   126   127   ar
    77   123   125   ar
    78   106   107    1
    79    47    46    1
    80    41    40    2
    81    32    31    1
    82    40    46   am
    83    40    39    1
    84   137   136    1
    85   127   125   ar
    86    81    82    1
    87   111   110    1
    88   111   112    1
    89    84    83    2
    90    22    21    2
    91    83    82    1
    92    39    38    1
    93    39    42    1
    94    82    85    1
    95    31    34    1
    96    31    30    1
    97   107   110    1
    98   107   108    1
    99   112   113    1
   100    34    35    1
   101   108   109    2
   102    87    88    1
   103    87    86    1
   104    21    30   am
   105    21    20    1
   106    42    44    1
   107    42    43    1
   108    36    35   ar
   109    35    37   ar
   110   113   114    2
   111    85    86    1
   112    88    89    2
   113    20    23    1
   114    20    19    1
   115    73    72    2
   116    23    24    1
   117    43    45    1
   118   114   115    1
   119   114   116    1
   120    89    90    1
   121    89    91    1
   122    25    24   ar
   123    25    27   ar
   124    71    70    1
   125    71    72    1
   126    71    74    1
   127    24    26   ar
   128    17    15   ar
   129    17    18   ar
   130    27    29   ar
   131    15    14   ar
   132    75    74    1
   133    75    76    1
   134    12    11    2
   135     4     3    2
   136    18    16   ar
   137    26    28   ar
   138    14    13    1
   139    14    16   ar
   140    11    10    1
   141    10    13    1
   142    10     9    1
   143    29    28   ar
   144    76    77    1
   145    77    78    2
   146     3     9   am
   147     3     2    1
   148     8     6   am
   149     5     2    1
   150     5     6    1
   151    78    80    1
   152    78    79    1
   153     2     1    1
   154     6     7    2
