@<TRIPOS>MOLECULE
tmp/1hooA00.pdb
 177 169 0 0 0
SMALL
GASTEIGER

@<TRIPOS>ATOM
      1  N         19.9410   61.7370  -19.9340 N.3    12  GLY12      -0.1210
      2  CA        21.3880   61.8430  -19.9770 C.3    12  GLY12       0.1956
      3  C         21.8610   63.2140  -19.5890 C.2    12  GLY12       0.2612
      4  O         21.0140   64.0680  -19.2690 O.2    12  GLY12      -0.2717
      5  N         23.1820   63.4020  -19.5860 N.am   13  ASP13      -0.1959
      6  CA        23.8260   64.6820  -19.3040 C.3    13  ASP13       0.1840
      7  C         23.4480   65.2320  -17.9520 C.2    13  ASP13       0.2622
      8  O         23.3530   66.4490  -17.7370 O.2    13  ASP13      -0.2715
      9  CB        23.4610   65.7040  -20.4030 C.3    13  ASP13       0.1450
     10  CG        24.0490   65.3450  -21.7370 C.2    13  ASP13       0.3671
     11  OD1       25.3000   65.3830  -21.8250 O.co2  13  ASP13      -0.2456
     12  OD2       23.2790   64.9780  -22.6720 O.co2  13  ASP13      -0.2456
     13  N         23.3350   64.3290  -16.9990 N.am   14  GLU14      -0.1963
     14  CA        22.8840   64.7160  -15.6750 C.3    14  GLU14       0.1733
     15  C         24.0060   65.1790  -14.7550 C.2    14  GLU14       0.2617
     16  O         23.7200   65.6530  -13.6810 O.2    14  GLU14      -0.2715
     17  CB        22.0710   63.5740  -15.0790 C.3    14  GLU14       0.0429
     18  CG        20.8730   63.1090  -15.9170 C.3    14  GLU14       0.1163
     19  CD        21.0880   61.8060  -16.7190 C.2    14  GLU14       0.3649
     20  OE1       22.2140   61.3760  -16.9240 O.co2  14  GLU14      -0.2457
     21  OE2       20.1230   61.1660  -17.1150 O.co2  14  GLU14      -0.2457
     22  N         25.2610   65.0940  -15.1920 N.am   15  GLY15      -0.1940
     23  CA        26.4120   65.5040  -14.3980 C.3    15  GLY15       0.2014
     24  C         26.7930   64.3820  -13.4400 C.2    15  GLY15       0.2639
     25  O         27.0820   64.6220  -12.2590 O.2    15  GLY15      -0.2714
     26  N         26.8850   63.1620  -13.9570 N.am   16  LYS16      -0.1963
     27  CA        27.1360   62.0120  -13.1070 C.3    16  LYS16       0.1728
     28  C         28.6200   61.6080  -12.9370 C.2    16  LYS16       0.2617
     29  O         28.9930   60.9030  -11.9550 O.2    16  LYS16      -0.2715
     30  CB        26.2960   60.8320  -13.6160 C.3    16  LYS16       0.0311
     31  CG        26.6990   60.2860  -14.9490 C.3    16  LYS16       0.0038
     32  CD        25.9360   58.9720  -15.2210 C.3    16  LYS16       0.0206
     33  CE        26.2640   58.3970  -16.5800 C.3    16  LYS16       0.1093
     34  NZ        27.6560   57.9220  -16.5930 N.3    16  LYS16      -0.1314
     35  N         29.4420   62.0630  -13.8860 N.am   17  GLY17      -0.1940
     36  CA        30.8600   61.7460  -13.9010 C.3    17  GLY17       0.2014
     37  C         31.5570   62.1040  -12.6310 C.2    17  GLY17       0.2638
     38  O         32.2930   61.3070  -12.0700 O.2    17  GLY17      -0.2714
     39  N         31.3180   63.3120  -12.1650 N.am   18  LYS18      -0.1977
     40  CA        31.9360   63.7520  -10.9230 C.3    18  LYS18       0.1596
     41  C         31.5510   62.8570   -9.7380 C.2    18  LYS18       0.2287
     42  O         32.4070   62.4350   -8.9610 O.2    18  LYS18      -0.2864
     43  CB        31.5220   65.1840  -10.6560 C.3    18  LYS18       0.0298
     44  CG        32.0320   65.7290   -9.3640 C.3    18  LYS18       0.0038
     45  CD        31.3480   67.0310   -9.1300 C.3    18  LYS18       0.0206
     46  CE        31.4290   67.3840   -7.7040 C.3    18  LYS18       0.1093
     47  NZ        30.7210   68.6580   -7.5560 N.3    18  LYS18      -0.1314
     48  N         29.7590   55.5350  -23.3510 N.3    39  ALA39      -0.1231
     49  CA        29.6820   56.0410  -21.9770 C.3    39  ALA39       0.1694
     50  C         30.7720   57.0820  -21.6900 C.2    39  ALA39       0.2593
     51  O         31.6630   56.8370  -20.8860 O.2    39  ALA39      -0.2718
     52  CB        29.7840   54.8880  -20.9820 C.3    39  ALA39       0.0304
     53  N         30.6810   58.2550  -22.2970 N.am   40  GLY40      -0.1942
     54  CA        31.7110   59.2650  -22.1050 C.3    40  GLY40       0.2014
     55  C         32.0250   59.8940  -20.7550 C.2    40  GLY40       0.2639
     56  O         31.3210   60.8050  -20.3150 O.2    40  GLY40      -0.2714
     57  N         33.1320   59.4810  -20.1400 N.am   41  HIS41      -0.1959
     58  CA        33.5770   60.0090  -18.8480 C.3    41  HIS41       0.1787
     59  C         34.9090   60.7080  -19.0310 C.2    41  HIS41       0.2620
     60  O         35.9280   60.0470  -19.2540 O.2    41  HIS41      -0.2715
     61  CB        33.7410   58.8580  -17.8440 C.3    41  HIS41       0.0785
     62  CG        34.0020   59.2970  -16.4250 C.ar   41  HIS41       0.0821
     63  ND1       35.1960   59.8620  -16.0220 N.ar   41  HIS41      -0.2267
     64  CD2       33.2310   59.2260  -15.3120 C.ar   41  HIS41       0.1154
     65  CE1       35.1460   60.1230  -14.7270 C.ar   41  HIS41       0.1986
     66  NE2       33.9650   59.7490  -14.2730 N.ar   41  HIS41      -0.2212
     67  N         34.9100   62.0340  -18.9260 N.am   42  THR42      -0.1951
     68  CA        36.1270   62.8240  -19.1190 C.3    42  THR42       0.1897
     69  C         36.9570   62.9500  -17.8580 C.2    42  THR42       0.2313
     70  O         36.4220   63.1480  -16.7630 O.2    42  THR42      -0.2863
     71  CB        35.8200   64.2230  -19.5620 C.3    42  THR42       0.1794
     72  OG1       34.8570   64.1840  -20.6180 O.3    42  THR42      -0.2208
     73  CG2       37.0910   64.8760  -20.0740 C.3    42  THR42       0.0378
     74  N         25.4210   53.9660  -17.7520 N.3   223  ALA223     -0.1231
     75  CA        26.0240   54.7660  -18.8230 C.3   223  ALA223      0.1694
     76  C         25.0580   55.7600  -19.5110 C.2   223  ALA223      0.2591
     77  O         25.5010   56.8410  -19.8930 O.2   223  ALA223     -0.2718
     78  CB        26.6760   53.8510  -19.8500 C.3   223  ALA223      0.0304
     79  N         23.7690   55.4470  -19.6650 N.am  224  GLN224     -0.1979
     80  CA        22.8820   56.4130  -20.3370 C.3   224  GLN224      0.1601
     81  C         21.8140   57.0390  -19.4240 C.2   224  GLN224      0.2287
     82  O         21.9360   57.0000  -18.2080 O.2   224  GLN224     -0.2864
     83  CB        22.2380   55.7940  -21.5840 C.3   224  GLN224      0.0394
     84  CG        23.1730   55.7030  -22.7690 C.3   224  GLN224      0.0908
     85  CD        23.3340   54.2870  -23.2540 C.2   224  GLN224      0.2608
     86  OE1       23.6630   53.3870  -22.4950 O.2   224  GLN224     -0.2717
     87  NE2       23.1050   54.0800  -24.5320 N.am  224  GLN224     -0.0878
     88  N         24.3080   79.3990  -19.1350 N.3   293  GLN293     -0.1245
     89  CA        24.8260   79.3320  -17.7660 C.3   293  GLN293      0.1566
     90  C         25.1000   77.9030  -17.2900 C.2   293  GLN293      0.2260
     91  O         25.6340   77.7060  -16.1950 O.2   293  GLN293     -0.2867
     92  CB        23.8550   79.9980  -16.7850 C.3   293  GLN293      0.0367
     93  CG        24.0500   81.5030  -16.6260 C.3   293  GLN293      0.0905
     94  CD        25.2810   81.8740  -15.8260 C.2   293  GLN293      0.2608
     95  OE1       26.3260   81.2230  -15.9210 O.2   293  GLN293     -0.2717
     96  NE2       25.1780   82.9530  -15.0520 N.am  293  GLN293     -0.0878
     97  N         26.4270   75.5770  -19.6160 N.3   295  ASN295     -0.1240
     98  CA        27.3880   75.0250  -20.5750 C.3   295  ASN295      0.1653
     99  C         26.8170   73.7420  -21.2250 C.2   295  ASN295      0.2266
    100  O         27.4710   72.6880  -21.2600 O.2   295  ASN295     -0.2867
    101  CB        28.6930   74.7290  -19.8390 C.3   295  ASN295      0.1155
    102  CG        29.9210   74.6480  -20.7600 C.2   295  ASN295      0.2627
    103  OD1       30.5620   75.6770  -21.0720 O.2   295  ASN295     -0.2716
    104  ND2       30.3230   73.4320  -21.0880 N.am  295  ASN295     -0.0877
    105  N         29.3340   68.7890  -23.2750 N.3   300  THR300     -0.1203
    106  CA        29.7390   67.4680  -22.8210 C.3   300  THR300      0.1994
    107  C         29.5050   66.4200  -23.9160 C.2   300  THR300      0.2618
    108  O         30.3650   65.5880  -24.1880 O.2   300  THR300     -0.2717
    109  CB        28.9850   67.0680  -21.5250 C.3   300  THR300      0.1784
    110  OG1       27.8000   67.8720  -21.3730 O.3   300  THR300     -0.2211
    111  CG2       29.8930   67.2400  -20.3150 C.3   300  THR300      0.0376
    112  N         28.3520   66.5270  -24.5700 N.am  301  THR301     -0.1952
    113  CA        27.9050   65.6350  -25.6390 C.3   301  THR301      0.1897
    114  C         26.5450   66.1120  -26.1580 C.2   301  THR301      0.2313
    115  O         25.5340   65.8920  -25.4920 O.2   301  THR301     -0.2863
    116  CB        27.7380   64.1600  -25.1240 C.3   301  THR301      0.1794
    117  OG1       29.0290   63.5580  -24.9260 O.3   301  THR301     -0.2208
    118  CG2       26.9070   63.3120  -26.1090 C.3   301  THR301      0.0378
    119  N         22.2860   67.7090   -9.1390 N.3   330  THR330     -0.1203
    120  CA        23.4600   68.3450   -9.7520 C.3   330  THR330      0.1994
    121  C         23.1440   69.6920  -10.3390 C.2   330  THR330      0.2617
    122  O         21.9890   70.0020  -10.6180 O.2   330  THR330     -0.2717
    123  CB        24.0190   67.4870  -10.8790 C.3   330  THR330      0.1784
    124  OG1       22.9340   67.1490  -11.7650 O.3   330  THR330     -0.2211
    125  CG2       24.6110   66.2450  -10.3250 C.3   330  THR330      0.0376
    126  N         24.1990   70.4760  -10.5420 N.am  331  LYS331     -0.1979
    127  CA        24.1070   71.8240  -11.1180 C.3   331  LYS331      0.1596
    128  C         23.0740   72.7420  -10.4510 C.2   331  LYS331      0.2287
    129  O         22.3320   73.4740  -11.1270 O.2   331  LYS331     -0.2864
    130  CB        23.8820   71.7750  -12.6210 C.3   331  LYS331      0.0298
    131  CG        25.1380   71.4960  -13.4070 C.3   331  LYS331      0.0038
    132  CD        24.7530   71.1020  -14.7920 C.3   331  LYS331      0.0206
    133  CE        25.9350   71.0130  -15.6980 C.3   331  LYS331      0.1093
    134  NZ        25.4210   70.6380  -17.0200 N.3   331  LYS331     -0.1314
    135  N         23.8820   75.2650   -8.9100 N.3   333  ASP333     -0.1225
    136  CA        24.4020   76.5730   -9.1810 C.3   333  ASP333      0.1805
    137  C         23.8720   77.2180  -10.4540 C.2   333  ASP333      0.2597
    138  O         23.7880   78.4760  -10.5300 O.2   333  ASP333     -0.2718
    139  CB        25.9260   76.5550   -9.1600 C.3   333  ASP333      0.1424
    140  CG        26.5330   75.4560  -10.0200 C.2   333  ASP333      0.3668
    141  OD1       26.1360   74.2940   -9.9260 O.co2 333  ASP333     -0.2456
    142  OD2       27.5170   75.7490  -10.7240 O.co2 333  ASP333     -0.2456
    143  N         23.4890   76.3990  -11.4410 N.am  334  VAL334     -0.1980
    144  CA        23.0130   76.9630  -12.7000 C.3   334  VAL334      0.1595
    145  C         21.8160   77.8920  -12.5070 C.2   334  VAL334      0.2287
    146  O         21.7130   78.9440  -13.1710 O.2   334  VAL334     -0.2864
    147  CB        22.7720   75.8400  -13.7980 C.3   334  VAL334      0.0276
    148  CG1       22.1630   76.4460  -15.0990 C.3   334  VAL334      0.0022
    149  CG2       24.1460   75.1600  -14.1200 C.3   334  VAL334      0.0022
    150  N         26.8450   78.2810   -5.9890 N.3   383  PHE383     -0.1241
    151  CA        28.1000   77.7780   -6.5240 C.3   383  PHE383      0.1605
    152  C         29.1780   77.6940   -5.4420 C.2   383  PHE383      0.2264
    153  O         29.2570   78.5430   -4.5480 O.2   383  PHE383     -0.2867
    154  CB        28.5850   78.6190   -7.7140 C.3   383  PHE383      0.0534
    155  CG        29.8100   78.0590   -8.3690 C.ar  383  PHE383     -0.0203
    156  CD1       31.0630   78.2330   -7.7930 C.ar  383  PHE383     -0.0042
    157  CD2       29.7000   77.2480   -9.4970 C.ar  383  PHE383     -0.0042
    158  CE1       32.1820   77.5950   -8.3210 C.ar  383  PHE383     -0.0003
    159  CE2       30.8180   76.6100  -10.0270 C.ar  383  PHE383     -0.0003
    160  CZ        32.0560   76.7820   -9.4340 C.ar  383  PHE383     -0.0000
    161  N         25.3460   68.6080   -5.6990 N.3   414  SER414     -0.1217
    162  CA        26.5460   69.1220   -6.3570 C.3   414  SER414      0.1889
    163  C         26.3900   70.6080   -6.6660 C.2   414  SER414      0.2288
    164  O         25.4770   71.0130   -7.4030 O.2   414  SER414     -0.2866
    165  CB        26.8780   68.3370   -7.5970 C.3   414  SER414      0.2089
    166  OG        28.1340   68.7500   -8.0700 O.3   414  SER414     -0.2183
    167  N         28.9550   72.6670   -8.0060 N.3   416  GLY416     -0.1210
    168  CA        29.9340   73.1850   -8.9570 C.3   416  GLY416      0.1940
    169  C         30.6650   72.0220   -9.5950 C.2   416  GLY416      0.2453
    170  O         30.4540   70.8710   -9.2110 O.2   416  GLY416     -0.2732
    171  N         31.5410   72.2740  -10.5630 N.am  417  PRO417     -0.2728
    172  CA        32.2320   71.1370  -11.1800 C.3   417  PRO417      0.1401
    173  C         33.3770   70.4550  -10.4030 C.2   417  PRO417      0.2269
    174  O         33.6860   69.2740  -10.6400 O.2   417  PRO417     -0.2865
    175  CB        32.6660   71.7060  -12.5410 C.3   417  PRO417      0.0296
    176  CG        32.9160   73.1410  -12.2390 C.3   417  PRO417      0.0237
    177  CD        31.7720   73.5220  -11.3080 C.3   417  PRO417      0.0939
@<TRIPOS>BOND
     1   114   113    1
     2   114   115    2
     3   118   116    1
     4   113   116    1
     5   113   112    1
     6   116   117    1
     7   112   107   am
     8    87    85   am
     9   108   107    2
    10   107   106    1
    11    48    49    1
    12   105   106    1
    13    85    84    1
    14    85    86    2
    15   106   109    1
    16    84    83    1
    17    12    10   ar
    18    53    54    1
    19    53    50   am
    20    54    55    1
    21    49    50    1
    22    49    52    1
    23    11    10   ar
    24    10     9    1
    25    50    51    2
    26    83    80    1
    27   109   110    1
    28   109   111    1
    29   100    99    2
    30    99    98    1
    31   104   102   am
    32   103   102    2
    33   102   101    1
    34    55    56    2
    35    55    57   am
    36    72    71    1
    37    98   101    1
    38    98    97    1
    39     9     6    1
    40    80    79    1
    41    80    81    1
    42    57    58    1
    43    73    71    1
    44     2     1    1
    45     2     3    1
    46    77    76    2
    47    78    75    1
    48    79    76   am
    49     3     5   am
    50     3     4    2
    51     5     6    1
    52    71    68    1
    53    76    75    1
    54    81    82    2
    55     6     7    1
    56    60    59    2
    57    88    89    1
    58    68    67    1
    59    68    69    1
    60    59    67   am
    61    59    58    1
    62    58    61    1
    63    75    74    1
    64     7     8    2
    65     7    13   am
    66    69    70    2
    67    61    62    1
    68    89    90    1
    69    89    92    1
    70    90    91    2
    71    21    19   ar
    72   134   133    1
    73    13    14    1
    74    20    19   ar
    75    92    93    1
    76    19    18    1
    77    93    94    1
    78    34    33    1
    79    33    32    1
    80    62    63   ar
    81    62    64   ar
    82    63    65   ar
    83    95    94    2
    84    18    17    1
    85    94    96   am
    86   133   132    1
    87    14    17    1
    88    14    15    1
    89    64    66   ar
    90    32    31    1
    91    22    15   am
    92    22    23    1
    93   148   147    1
    94    31    30    1
    95   132   131    1
    96    15    16    2
    97    65    66   ar
    98    23    24    1
    99   149   147    1
   100    26    24   am
   101    26    27    1
   102    36    35    1
   103    36    37    1
   104    35    28   am
   105   147   144    1
   106    30    27    1
   107    24    25    2
   108   131   130    1
   109   146   145    2
   110    27    28    1
   111    28    29    2
   112   144   145    1
   113   144   143    1
   114    37    39   am
   115    37    38    2
   116   130   127    1
   117   175   176    1
   118   175   172    1
   119   176   177    1
   120    39    40    1
   121   124   123    1
   122   143   137   am
   123   177   171    1
   124   172   171    1
   125   172   173    1
   126   129   128    2
   127   127   126    1
   128   127   128    1
   129    40    43    1
   130    40    41    1
   131   123   125    1
   132   123   120    1
   133   142   140   ar
   134    43    44    1
   135   174   173    2
   136   122   121    2
   137   171   169   am
   138   126   121   am
   139   138   137    2
   140   137   136    1
   141   121   120    1
   142   159   157   ar
   143   159   160   ar
   144   140   141   ar
   145   140   139    1
   146   120   119    1
   147    41    42    2
   148   169   170    2
   149   169   168    1
   150   157   155   ar
   151   160   158   ar
   152    44    45    1
   153   136   139    1
   154   136   135    1
   155    45    46    1
   156   168   167    1
   157   155   156   ar
   158   155   154    1
   159   158   156   ar
   160   166   165    1
   161   154   151    1
   162    46    47    1
   163   165   162    1
   164   164   163    2
   165   163   162    1
   166   151   150    1
   167   151   152    1
   168   162   161    1
   169   152   153    2
