@<TRIPOS>MOLECULE
tmp/1hopB00.pdb
 178 171 0 0 0
SMALL
GASTEIGER

@<TRIPOS>ATOM
      1  N         14.7240   24.1940  -16.7210 N.3    12  GLY12      -0.1210
      2  CA        13.3320   24.1530  -17.0820 C.3    12  GLY12       0.1956
      3  C         12.7800   22.7910  -16.7430 C.2    12  GLY12       0.2612
      4  O         13.5400   21.8590  -16.5200 O.2    12  GLY12      -0.2717
      5  N         11.4540   22.6950  -16.7200 N.am   13  ASP13      -0.1959
      6  CA        10.7360   21.4670  -16.4170 C.3    13  ASP13       0.1840
      7  C         10.8650   21.0930  -14.9520 C.2    13  ASP13       0.2622
      8  O         10.8290   19.9030  -14.6050 O.2    13  ASP13      -0.2715
      9  CB        11.2480   20.2980  -17.2810 C.3    13  ASP13       0.1450
     10  CG        11.1860   20.5810  -18.7800 C.2    13  ASP13       0.3671
     11  OD1       10.8770   21.7340  -19.1990 O.co2  13  ASP13      -0.2456
     12  OD2       11.4600   19.6180  -19.5440 O.co2  13  ASP13      -0.2456
     13  N         11.0070   22.0870  -14.0860 N.am   14  GLU14      -0.1963
     14  CA        11.1540   21.8320  -12.6400 C.3    14  GLU14       0.1733
     15  C          9.8080   21.4540  -11.9400 C.2    14  GLU14       0.2617
     16  O          9.8000   20.8460  -10.8520 O.2    14  GLU14      -0.2715
     17  CB        11.8120   23.0470  -11.9480 C.3    14  GLU14       0.0429
     18  CG        13.3060   23.3790  -12.3890 C.3    14  GLU14       0.1163
     19  CD        13.4050   24.2570  -13.6540 C.2    14  GLU14       0.3649
     20  OE1       12.3420   24.4430  -14.2690 O.co2  14  GLU14      -0.2457
     21  OE2       14.5160   24.7480  -14.0270 O.co2  14  GLU14      -0.2457
     22  N          8.6860   21.8010  -12.5760 N.am   15  GLY15      -0.1940
     23  CA         7.3860   21.5180  -11.9980 C.3    15  GLY15       0.2014
     24  C          6.6920   22.7260  -11.3830 C.2    15  GLY15       0.2639
     25  O          5.9710   22.5810  -10.3840 O.2    15  GLY15      -0.2714
     26  N          6.8720   23.9040  -11.9890 N.am   16  LYS16      -0.1963
     27  CA         6.2870   25.1750  -11.5140 C.3    16  LYS16       0.1728
     28  C          4.7390   25.2800  -11.5030 C.2    16  LYS16       0.2617
     29  O          4.1540   25.9180  -10.6070 O.2    16  LYS16      -0.2715
     30  CB         6.8000   26.3350  -12.3710 C.3    16  LYS16       0.0311
     31  CG         8.2890   26.5170  -12.3850 C.3    16  LYS16       0.0038
     32  CD         8.6300   27.8120  -13.1190 C.3    16  LYS16       0.0206
     33  CE         8.7240   27.5730  -14.6300 C.3    16  LYS16       0.1093
     34  NZ         7.9800   28.6180  -15.3890 N.3    16  LYS16      -0.1314
     35  N          4.0820   24.7250  -12.5140 N.am   17  GLY17      -0.1940
     36  CA         2.6340   24.8230  -12.6100 C.3    17  GLY17       0.2014
     37  C          1.8410   24.7380  -11.3280 C.2    17  GLY17       0.2638
     38  O          1.0800   25.6180  -10.9660 O.2    17  GLY17      -0.2714
     39  N          2.0630   23.6760  -10.5890 N.am   18  LYS18      -0.1977
     40  CA         1.3250   23.4450   -9.3600 C.3    18  LYS18       0.1596
     41  C          1.5660   24.5030   -8.3420 C.2    18  LYS18       0.2287
     42  O          0.6400   24.9480   -7.7050 O.2    18  LYS18      -0.2864
     43  CB         1.6590   22.0730   -8.7820 C.3    18  LYS18       0.0298
     44  CG         0.8810   21.7870   -7.5550 C.3    18  LYS18       0.0038
     45  CD         1.6340   20.8320   -6.7010 C.3    18  LYS18       0.0206
     46  CE         1.0280   20.8450   -5.3100 C.3    18  LYS18       0.1093
     47  NZ         1.2890   19.5530   -4.6190 N.3    18  LYS18      -0.1314
     48  N          5.3220   30.3770  -24.7360 N.3    38  ASN38      -0.1225
     49  CA         6.0450   29.1550  -24.2850 C.3    38  ASN38       0.1785
     50  C          5.2910   28.5570  -23.1420 C.2    38  ASN38       0.2597
     51  O          4.9980   27.3920  -23.1550 O.2    38  ASN38      -0.2718
     52  CB         7.4110   29.4480  -23.6370 C.3    38  ASN38       0.1169
     53  CG         8.2550   30.3510  -24.4320 C.2    38  ASN38       0.2627
     54  OD1        8.4890   31.4990  -24.0520 O.2    38  ASN38      -0.2716
     55  ND2        8.7290   29.8630  -25.5460 N.am   38  ASN38      -0.0877
     56  N          5.0950   29.3720  -22.1060 N.am   39  ALA39      -0.1966
     57  CA         4.3850   29.0140  -20.8820 C.3    39  ALA39       0.1728
     58  C          4.1090   27.5370  -20.7170 C.2    39  ALA39       0.2617
     59  O          4.7740   26.8870  -19.9230 O.2    39  ALA39      -0.2715
     60  CB         3.1090   29.7920  -20.7640 C.3    39  ALA39       0.0334
     61  N          3.1180   27.0100  -21.4290 N.am   40  GLY40      -0.1940
     62  CA         2.8060   25.5910  -21.3040 C.3    40  GLY40       0.2014
     63  C          2.3380   25.2790  -19.8970 C.2    40  GLY40       0.2639
     64  O          3.1410   25.0450  -18.9990 O.2    40  GLY40      -0.2714
     65  N          1.0280   25.2970  -19.6970 N.am   41  HIS41      -0.1959
     66  CA         0.4510   25.0370  -18.3900 C.3    41  HIS41       0.1787
     67  C         -0.9490   24.4860  -18.5590 C.2    41  HIS41       0.2620
     68  O         -1.8540   25.1710  -19.0410 O.2    41  HIS41      -0.2715
     69  CB         0.4340   26.3310  -17.5670 C.3    41  HIS41       0.0785
     70  CG        -0.2290   26.2010  -16.2280 C.ar   41  HIS41       0.0821
     71  ND1       -0.4210   27.2820  -15.3870 N.ar   41  HIS41      -0.2267
     72  CD2       -0.7710   25.1310  -15.5990 C.ar   41  HIS41       0.1154
     73  CE1       -1.0600   26.8770  -14.3020 C.ar   41  HIS41       0.1986
     74  NE2       -1.2880   25.5800  -14.4060 N.ar   41  HIS41      -0.2212
     75  N         -1.0830   23.2180  -18.2030 N.am   42  THR42      -0.1951
     76  CA        -2.3320   22.4840  -18.2800 C.3    42  THR42       0.1897
     77  C         -3.3170   22.9020  -17.1700 C.2    42  THR42       0.2313
     78  O         -3.0800   22.6910  -15.9780 O.2    42  THR42      -0.2863
     79  CB        -2.0710   20.9670  -18.1900 C.3    42  THR42       0.1794
     80  OG1       -1.6560   20.6110  -16.8570 O.3    42  THR42      -0.2208
     81  CG2       -0.9930   20.5740  -19.1800 C.3    42  THR42       0.0378
     82  N          9.3330   32.0590  -17.2030 N.3   223  ALA223     -0.1231
     83  CA         8.8400   30.9860  -18.0570 C.3   223  ALA223      0.1694
     84  C          9.9120   29.9480  -18.3250 C.2   223  ALA223      0.2592
     85  O          9.6640   28.7420  -18.2450 O.2   223  ALA223     -0.2718
     86  CB         8.2970   31.5510  -19.3480 C.3   223  ALA223      0.0304
     87  N         11.1140   30.4010  -18.6390 N.am  224  GLN224     -0.1966
     88  CA        12.1820   29.4570  -18.8730 C.3   224  GLN224      0.1733
     89  C         13.0680   29.2310  -17.6220 C.2   224  GLN224      0.2616
     90  O         13.0430   30.0330  -16.7050 O.2   224  GLN224     -0.2715
     91  CB        12.9880   29.8910  -20.0980 C.3   224  GLN224      0.0408
     92  CG        12.2800   29.5480  -21.3910 C.3   224  GLN224      0.0908
     93  CD        11.6300   30.7270  -22.0360 C.2   224  GLN224      0.2608
     94  OE1       11.1240   31.6110  -21.3550 O.2   224  GLN224     -0.2717
     95  NE2       11.6830   30.7830  -23.3660 N.am  224  GLN224     -0.0878
     96  N         13.7650   28.0910  -17.5570 N.am  225  GLY225     -0.1955
     97  CA        14.6710   27.8310  -16.4490 C.3   225  GLY225      0.1869
     98  C         15.9430   28.6910  -16.4950 C.2   225  GLY225      0.2309
     99  O         16.4580   28.9830  -17.5680 O.2   225  GLY225     -0.2863
    100  N          9.6510    6.8670  -13.9910 N.3   293  GLN293     -0.1245
    101  CA         8.8330    7.3150  -12.8590 C.3   293  GLN293      0.1566
    102  C          8.5350    8.8270  -12.8530 C.2   293  GLN293      0.2260
    103  O          7.5400    9.2820  -12.2900 O.2   293  GLN293     -0.2867
    104  CB         9.4700    6.8780  -11.5260 C.3   293  GLN293      0.0367
    105  CG         9.3940    5.3640  -11.2130 C.3   293  GLN293      0.0905
    106  CD         7.9470    4.8460  -11.0290 C.2   293  GLN293      0.2608
    107  OE1        7.1350    4.8440  -11.9710 O.2   293  GLN293     -0.2717
    108  NE2        7.6350    4.3840   -9.8290 N.am  293  GLN293     -0.0878
    109  N         13.6680   13.2250  -22.4910 N.3   305  ARG305     -0.1245
    110  CA        14.4890   14.2790  -21.9180 C.3   305  ARG305      0.1563
    111  C         15.6910   13.6620  -21.2190 C.2   305  ARG305      0.2260
    112  O         15.5540   12.6240  -20.5720 O.2   305  ARG305     -0.2867
    113  CB        13.6620   15.0630  -20.9070 C.3   305  ARG305      0.0307
    114  CG        12.5260   15.7960  -21.5580 C.3   305  ARG305      0.0489
    115  CD        11.5820   16.3530  -20.5680 C.3   305  ARG305      0.2205
    116  NE        10.4520   16.9870  -21.2500 N.pl3 305  ARG305     -0.0865
    117  CZ         9.3780   17.3870  -20.5780 C.cat 305  ARG305      0.5346
    118  NH1        9.3050   17.1980  -19.2600 N.pl3 305  ARG305      0.1354
    119  NH2        8.4200   18.0460  -21.2130 N.pl3 305  ARG305      0.1354
    120  N         10.5250   19.7020   -5.8430 N.3   330  THR330     -0.1203
    121  CA         9.4860   18.9530   -6.4900 C.3   330  THR330      0.1994
    122  C          9.8800   17.5010   -6.7950 C.2   330  THR330      0.2617
    123  O         11.0290   17.0900   -6.6670 O.2   330  THR330     -0.2717
    124  CB         9.1000   19.6770   -7.7950 C.3   330  THR330      0.1784
    125  OG1       10.3080   20.0790   -8.4750 O.3   330  THR330     -0.2211
    126  CG2        8.2410   20.9190   -7.4890 C.3   330  THR330      0.0376
    127  N          8.8710   16.7270   -7.1440 N.am  331  LYS331     -0.1979
    128  CA         9.0340   15.3530   -7.5580 C.3   331  LYS331      0.1596
    129  C         10.0290   14.5270   -6.7310 C.2   331  LYS331      0.2287
    130  O         10.6770   13.6160   -7.2550 O.2   331  LYS331     -0.2864
    131  CB         9.3530   15.3170   -9.0590 C.3   331  LYS331      0.0298
    132  CG         8.4170   16.1670   -9.8700 C.3   331  LYS331      0.0038
    133  CD         8.6060   15.9290  -11.3130 C.3   331  LYS331      0.0206
    134  CE         7.7900   14.7230  -11.8180 C.3   331  LYS331      0.1093
    135  NZ         7.5860   14.9000  -13.3120 N.3   331  LYS331     -0.1314
    136  N          9.1880   12.4020   -4.6830 N.3   333  ASP333     -0.1225
    137  CA         8.5550   11.0900   -4.6760 C.3   333  ASP333      0.1805
    138  C          9.0440   10.1980   -5.8080 C.2   333  ASP333      0.2597
    139  O          8.9780    8.9950   -5.6990 O.2   333  ASP333     -0.2718
    140  CB         7.0200   11.2280   -4.7080 C.3   333  ASP333      0.1424
    141  CG         6.5010   11.7310   -6.0220 C.2   333  ASP333      0.3668
    142  OD1        6.3190   10.8680   -6.9110 O.co2 333  ASP333     -0.2456
    143  OD2        6.2660   12.9670   -6.1760 O.co2 333  ASP333     -0.2456
    144  N          9.5480   10.7780   -6.8870 N.am  334  VAL334     -0.1980
    145  CA        10.0440    9.9800   -7.9930 C.3   334  VAL334      0.1595
    146  C         11.2240    9.1140   -7.5260 C.2   334  VAL334      0.2287
    147  O         11.5410    8.1000   -8.1400 O.2   334  VAL334     -0.2864
    148  CB        10.4450   10.8870   -9.2180 C.3   334  VAL334      0.0276
    149  CG1       11.0890   10.0660  -10.3340 C.3   334  VAL334      0.0022
    150  CG2        9.2210   11.6910   -9.7320 C.3   334  VAL334      0.0022
    151  N          4.6670    9.6800   -1.5330 N.3   383  PHE383     -0.1241
    152  CA         3.6060   10.3480   -2.3100 C.3   383  PHE383      0.1605
    153  C          2.4790   10.8260   -1.3690 C.2   383  PHE383      0.2264
    154  O          1.9770   10.0690   -0.4960 O.2   383  PHE383     -0.2867
    155  CB         3.0550    9.3710   -3.3600 C.3   383  PHE383      0.0534
    156  CG         2.1780    9.9980   -4.4140 C.ar  383  PHE383     -0.0203
    157  CD1        0.8080   10.0910   -4.2340 C.ar  383  PHE383     -0.0042
    158  CD2        2.7220   10.4370   -5.6230 C.ar  383  PHE383     -0.0042
    159  CE1       -0.0110   10.6060   -5.2300 C.ar  383  PHE383     -0.0003
    160  CE2        1.9040   10.9600   -6.6340 C.ar  383  PHE383     -0.0003
    161  CZ         0.5340   11.0420   -6.4330 C.ar  383  PHE383     -0.0000
    162  N          6.9500   19.6040   -2.6040 N.3   414  SER414     -0.1217
    163  CA         5.7790   19.0640   -3.2910 C.3   414  SER414      0.1889
    164  C          5.9310   17.5590   -3.2610 C.2   414  SER414      0.2288
    165  O          7.0540   17.0450   -3.4380 O.2   414  SER414     -0.2866
    166  CB         5.6630   19.5590   -4.7290 C.3   414  SER414      0.2089
    167  OG         4.4030   19.1930   -5.3160 O.3   414  SER414     -0.2183
    168  N          3.2850   15.4870   -4.7750 N.3   416  GLY416     -0.1210
    169  CA         2.2300   15.0470   -5.6720 C.3   416  GLY416      0.1940
    170  C          1.6740   16.2230   -6.4550 C.2   416  GLY416      0.2453
    171  O          1.6590   17.3410   -5.9420 O.2   416  GLY416     -0.2732
    172  N          1.2140   16.0110   -7.6960 N.am  417  PRO417     -0.2728
    173  CA         0.6610   17.0860   -8.5370 C.3   417  PRO417      0.1401
    174  C         -0.5850   17.8040   -7.9580 C.2   417  PRO417      0.2269
    175  O         -0.7250   19.0350   -8.1480 O.2   417  PRO417     -0.2865
    176  CB         0.3380   16.3690   -9.8490 C.3   417  PRO417      0.0296
    177  CG         1.2610   15.1750   -9.8430 C.3   417  PRO417      0.0237
    178  CD         1.1920   14.7230   -8.4080 C.3   417  PRO417      0.0939
@<TRIPOS>BOND
     1    55    53   am
     2    48    49    1
     3    53    54    2
     4    53    52    1
     5    49    52    1
     6    49    50    1
     7    95    93   am
     8    51    50    2
     9    50    56   am
    10   109   110    1
    11    56    57    1
    12    93    92    1
    13    93    94    2
    14   110   111    1
    15   110   113    1
    16   114   113    1
    17   114   115    1
    18    61    62    1
    19    61    58   am
    20    92    91    1
    21    62    63    1
    22   116   117    2
    23   116   115    1
    24   111   112    2
    25   119   117    1
    26    57    60    1
    27    57    58    1
    28    58    59    2
    29   117   118    1
    30    91    88    1
    31    63    65   am
    32    63    64    2
    33    65    66    1
    34    12    10   ar
    35    86    83    1
    36    11    10   ar
    37    81    79    1
    38    68    67    2
    39    88    87    1
    40    88    89    1
    41    10     9    1
    42    87    84   am
    43    67    66    1
    44    67    75   am
    45    66    69    1
    46    84    85    2
    47    84    83    1
    48    76    75    1
    49    76    79    1
    50    76    77    1
    51    79    80    1
    52    83    82    1
    53    89    96   am
    54    89    90    2
    55    99    98    2
    56    69    70    1
    57    96    97    1
    58     9     6    1
    59    77    78    2
    60     2     3    1
    61     2     1    1
    62     3     5   am
    63     3     4    2
    64     5     6    1
    65    98    97    1
    66     6     7    1
    67    70    72   ar
    68    70    71   ar
    69    72    74   ar
    70    34    33    1
    71    71    73   ar
    72     7     8    2
    73     7    13   am
    74    33    32    1
    75    74    73   ar
    76    20    19   ar
    77    13    14    1
    78    21    19   ar
    79   100   101    1
    80    19    18    1
    81   135   134    1
    82    32    31    1
    83   101   102    1
    84   101   104    1
    85   102   103    2
    86    14    17    1
    87    14    15    1
    88    36    35    1
    89    36    37    1
    90    22    23    1
    91    22    15   am
    92    35    28   am
    93    18    17    1
    94    31    30    1
    95    30    27    1
    96    23    24    1
    97    26    27    1
    98    26    24   am
    99   107   106    2
   100    15    16    2
   101   134   133    1
   102   104   105    1
   103    27    28    1
   104    28    29    2
   105    24    25    2
   106    37    38    2
   107    37    39   am
   108   133   132    1
   109   105   106    1
   110   106   108   am
   111    39    40    1
   112   149   148    1
   113   132   131    1
   114   176   177    1
   115   176   173    1
   116   177   178    1
   117   150   148    1
   118    40    43    1
   119    40    41    1
   120   148   145    1
   121   131   128    1
   122    43    44    1
   123   173   174    1
   124   173   172    1
   125   125   124    1
   126   178   172    1
   127    41    42    2
   128   175   174    2
   129   147   146    2
   130   145   146    1
   131   145   144    1
   132   124   126    1
   133   124   121    1
   134   172   170   am
   135   128   127    1
   136   128   129    1
   137    44    45    1
   138   130   129    2
   139   127   122   am
   140   142   141   ar
   141   144   138   am
   142   122   123    2
   143   122   121    1
   144    45    46    1
   145   160   161   ar
   146   160   158   ar
   147   121   120    1
   148   170   171    2
   149   170   169    1
   150   161   159   ar
   151   143   141   ar
   152   141   140    1
   153   138   139    2
   154   138   137    1
   155   169   168    1
   156   158   156   ar
   157   167   166    1
   158    46    47    1
   159   159   157   ar
   160   166   163    1
   161   140   137    1
   162   136   137    1
   163   156   157   ar
   164   156   155    1
   165   165   164    2
   166   155   152    1
   167   163   164    1
   168   163   162    1
   169   152   151    1
   170   152   153    1
   171   153   154    2
