@<TRIPOS>MOLECULE
tmp/1horA00.pdb
 151 147 0 0 0
SMALL
GASTEIGER

@<TRIPOS>ATOM
      1  N         22.2330  -10.7910   19.4180 N.3    40  PRO40      -0.2102
      2  CA        22.6200   -9.9730   20.5720 C.3    40  PRO40       0.1504
      3  C         24.0220  -10.3160   21.0790 C.2    40  PRO40       0.2576
      4  O         24.6390  -11.2900   20.6440 O.2    40  PRO40      -0.2718
      5  CB        21.5830  -10.3930   21.6000 C.3    40  PRO40       0.0282
      6  CG        21.5430  -11.8930   21.3920 C.3    40  PRO40       0.0208
      7  CD        21.6190  -12.0540   19.8560 C.3    40  PRO40       0.0893
      8  N         24.5350   -9.4950   21.9910 N.am   41  THR41      -0.1939
      9  CA        25.8340   -9.7240   22.6150 C.3    41  THR41       0.2028
     10  C         25.5800   -9.6540   24.1220 C.2    41  THR41       0.2643
     11  O         24.4760   -9.3050   24.5520 O.2    41  THR41      -0.2714
     12  CB        26.9180   -8.6710   22.1970 C.3    41  THR41       0.1808
     13  OG1       26.4400   -7.3390   22.4290 O.3    41  THR41      -0.2208
     14  CG2       27.2750   -8.8120   20.7250 C.3    41  THR41       0.0379
     15  N         26.5950   -9.9770   24.9180 N.am   42  GLY42      -0.1939
     16  CA        26.4420   -9.9510   26.3600 C.3    42  GLY42       0.2014
     17  C         26.6110  -11.3430   26.9290 C.2    42  GLY42       0.2639
     18  O         26.8020  -12.3070   26.1870 O.2    42  GLY42      -0.2714
     19  N         26.5180  -11.4540   28.2470 N.am   43  GLY43      -0.1939
     20  CA        26.6570  -12.7490   28.8760 C.3    43  GLY43       0.2014
     21  C         25.5480  -13.7460   28.5990 C.2    43  GLY43       0.2640
     22  O         25.8190  -14.9410   28.4530 O.2    43  GLY43      -0.2714
     23  N         24.3150  -13.2690   28.4540 N.am   44  THR44      -0.1937
     24  CA        23.1620  -14.1520   28.2410 C.3    44  THR44       0.2013
     25  C         23.2600  -15.1920   27.1220 C.2    44  THR44       0.2484
     26  O         23.0870  -16.3910   27.3670 O.2    44  THR44      -0.2729
     27  CB        21.8600  -13.3460   28.0350 C.3    44  THR44       0.1807
     28  OG1       21.7700  -12.2970   29.0120 O.3    44  THR44      -0.2208
     29  CG2       20.6440  -14.2510   28.1620 C.3    44  THR44       0.0379
     30  N         23.5500  -14.7510   25.8850 N.am   45  PRO45      -0.2726
     31  CA        23.6400  -15.6800   24.7530 C.3    45  PRO45       0.1402
     32  C         24.8280  -16.6430   24.6850 C.2    45  PRO45       0.2269
     33  O         24.9190  -17.4170   23.7460 O.2    45  PRO45      -0.2865
     34  CB        23.6250  -14.7340   23.5540 C.3    45  PRO45       0.0296
     35  CG        24.3900  -13.5580   24.0660 C.3    45  PRO45       0.0237
     36  CD        23.8130  -13.3670   25.4400 C.3    45  PRO45       0.0939
     37  N         22.1280   -6.4080   16.9590 N.3    71  MET71      -0.1230
     38  CA        21.3110   -5.3580   17.5630 C.3    71  MET71       0.1702
     39  C         21.9700   -4.0160   17.8160 C.2    71  MET71       0.2592
     40  O         21.3650   -2.9720   17.5900 O.2    71  MET71      -0.2718
     41  CB        20.7260   -5.8470   18.8900 C.3    71  MET71       0.0401
     42  CG        19.4220   -6.5980   18.7680 C.3    71  MET71       0.0596
     43  SD        18.8580   -7.2960   20.3200 S.3    71  MET71      -0.1393
     44  CE        20.2050   -6.9990   21.2560 C.3    71  MET71       0.0692
     45  N         23.2050   -4.0480   18.2950 N.am   72  ASP72      -0.1974
     46  CA        23.8900   -2.8180   18.6600 C.3    72  ASP72       0.1709
     47  C         25.4110   -2.8970   18.6430 C.2    72  ASP72       0.2293
     48  O         25.9910   -3.9510   18.3710 O.2    72  ASP72      -0.2864
     49  CB        23.4040   -2.4010   20.0640 C.3    72  ASP72       0.1436
     50  CG        23.0860   -3.6160   20.9680 C.2    72  ASP72       0.3671
     51  OD1       24.0030   -4.4370   21.2270 O.co2  72  ASP72      -0.2456
     52  OD2       21.9110   -3.7620   21.3860 O.co2  72  ASP72      -0.2456
     53  N         31.5070   -5.1430   20.3600 N.3    85  TYR85      -0.1241
     54  CA        30.5620   -6.1820   19.9680 C.3    85  TYR85       0.1605
     55  C         31.0320   -6.9530   18.7380 C.2    85  TYR85       0.2264
     56  O         30.7980   -8.1470   18.6280 O.2    85  TYR85      -0.2867
     57  CB        29.1530   -5.6010   19.8200 C.3    85  TYR85       0.0534
     58  CG        28.5470   -5.2480   21.1660 C.ar   85  TYR85      -0.0201
     59  CD1       29.1710   -5.6480   22.3550 C.ar   85  TYR85      -0.0009
     60  CD2       27.3590   -4.5280   21.2600 C.ar   85  TYR85      -0.0009
     61  CE1       28.6400   -5.3490   23.5770 C.ar   85  TYR85       0.0417
     62  CE2       26.8120   -4.2200   22.5030 C.ar   85  TYR85       0.0417
     63  CZ        27.4620   -4.6400   23.6550 C.ar   85  TYR85       0.1957
     64  OH        26.9420   -4.3790   24.9040 O.3    85  TYR85      -0.2866
     65  N         18.3650  -10.2730   24.3050 N.3   137  GLY137     -0.1210
     66  CA        18.4680  -10.4270   25.7360 C.3   137  GLY137      0.1956
     67  C         17.6040   -9.3410   26.3180 C.2   137  GLY137      0.2612
     68  O         16.8330   -8.7040   25.6040 O.2   137  GLY137     -0.2717
     69  N         17.7200   -9.1290   27.6150 N.am  138  VAL138     -0.1965
     70  CA        16.9420   -8.0920   28.2650 C.3   138  VAL138      0.1727
     71  C         17.8440   -7.4540   29.3150 C.2   138  VAL138      0.2616
     72  O         18.6970   -8.1350   29.8860 O.2   138  VAL138     -0.2715
     73  CB        15.6680   -8.6790   28.9090 C.3   138  VAL138      0.0290
     74  CG1       16.0320   -9.7470   29.9440 C.3   138  VAL138      0.0023
     75  CG2       14.8230   -7.5640   29.5080 C.3   138  VAL138      0.0023
     76  N         17.7510   -6.1440   29.4690 N.am  139  GLY139     -0.1955
     77  CA        18.5710   -5.4780   30.4550 C.3   139  GLY139      0.1869
     78  C         17.8900   -5.4890   31.8110 C.2   139  GLY139      0.2309
     79  O         16.6840   -5.6960   31.9070 O.2   139  GLY139     -0.2863
     80  N         15.4680   -3.1230   29.2820 N.3   143  HIS143     -0.1241
     81  CA        15.7790   -2.6670   27.9350 C.3   143  HIS143      0.1621
     82  C         15.9850   -3.8040   26.9260 C.2   143  HIS143      0.2264
     83  O         16.5380   -4.8520   27.2530 O.2   143  HIS143     -0.2867
     84  CB        16.9580   -1.6500   27.9190 C.3   143  HIS143      0.0745
     85  CG        18.3230   -2.2430   28.1170 C.ar  143  HIS143      0.0817
     86  ND1       19.2230   -1.7300   29.0250 N.ar  143  HIS143     -0.2268
     87  CD2       18.9580   -3.2730   27.5090 C.ar  143  HIS143      0.1154
     88  CE1       20.3510   -2.4150   28.9640 C.ar  143  HIS143      0.1986
     89  NE2       20.2190   -3.3600   28.0530 N.ar  143  HIS143     -0.2212
     90  N         17.6810   -4.4870   23.3820 N.3   145  ALA145     -0.1231
     91  CA        18.7410   -3.8580   22.5870 C.3   145  ALA145      0.1694
     92  C         19.2220   -2.7480   23.5360 C.2   145  ALA145      0.2592
     93  O         19.3530   -3.0080   24.7200 O.2   145  ALA145     -0.2718
     94  CB        18.1820   -3.2860   21.2770 C.3   145  ALA145      0.0304
     95  N         19.5220   -1.5470   23.0550 N.am  146  PHE146     -0.1976
     96  CA        19.9010   -0.4650   23.9780 C.3   146  PHE146      0.1639
     97  C         18.8040    0.6060   23.9850 C.2   146  PHE146      0.2290
     98  O         19.0580    1.8090   24.0580 O.2   146  PHE146     -0.2864
     99  CB        21.2750    0.1320   23.6570 C.3   146  PHE146      0.0560
    100  CG        22.4230   -0.6540   24.2270 C.ar  146  PHE146     -0.0200
    101  CD1       22.3290   -1.2290   25.4970 C.ar  146  PHE146     -0.0042
    102  CD2       23.5850   -0.8650   23.4870 C.ar  146  PHE146     -0.0042
    103  CE1       23.3750   -2.0050   26.0120 C.ar  146  PHE146     -0.0003
    104  CE2       24.6370   -1.6450   24.0010 C.ar  146  PHE146     -0.0003
    105  CZ        24.5250   -2.2110   25.2610 C.ar  146  PHE146     -0.0000
    106  N         23.2370    0.5580   33.2250 N.3   166  THR166     -0.1218
    107  CA        23.6850   -0.3380   32.1650 C.3   166  THR166      0.1862
    108  C         25.2090   -0.3130   32.1150 C.2   166  THR166      0.2287
    109  O         25.8460   -1.3540   31.9920 O.2   166  THR166     -0.2866
    110  CB        23.1370    0.0960   30.8010 C.3   166  THR166      0.1770
    111  OG1       21.7040    0.1270   30.8550 O.3   166  THR166     -0.2211
    112  CG2       23.5990   -0.8650   29.7040 C.3   166  THR166      0.0375
    113  N         27.5770   -3.3720   32.6620 N.3   170  ASN170     -0.1240
    114  CA        28.5270   -3.7950   31.6300 C.3   170  ASN170      0.1653
    115  C         30.0080   -3.6720   32.0200 C.2   170  ASN170      0.2266
    116  O         30.8900   -4.2440   31.3570 O.2   170  ASN170     -0.2867
    117  CB        28.2480   -3.0340   30.3320 C.3   170  ASN170      0.1155
    118  CG        26.9510   -3.4640   29.6740 C.2   170  ASN170      0.2627
    119  OD1       26.2300   -4.3150   30.1990 O.2   170  ASN170     -0.2716
    120  ND2       26.6610   -2.9090   28.4990 N.am  170  ASN170     -0.0877
    121  N         31.5160   -5.1600   33.9800 N.3   172  ARG172     -0.1231
    122  CA        31.9860   -6.5310   34.1590 C.3   172  ARG172      0.1694
    123  C         33.0800   -6.8480   33.1590 C.2   172  ARG172      0.2592
    124  O         34.0740   -7.4840   33.4910 O.2   172  ARG172     -0.2718
    125  CB        30.8570   -7.5120   33.8500 C.3   172  ARG172      0.0321
    126  CG        30.0450   -8.0050   35.0080 C.3   172  ARG172      0.0489
    127  CD        29.1130   -9.0990   34.5270 C.3   172  ARG172      0.2205
    128  NE        28.1820   -8.6190   33.5060 N.pl3 172  ARG172     -0.0865
    129  CZ        27.5340   -9.4030   32.6530 C.cat 172  ARG172      0.5346
    130  NH1       27.7180  -10.7140   32.6720 N.pl3 172  ARG172      0.1354
    131  NH2       26.6670   -8.8800   31.8070 N.pl3 172  ARG172      0.1354
    132  N         32.8640   -6.4190   31.9200 N.am  173  PHE173     -0.1976
    133  CA        33.7790   -6.6940   30.8260 C.3   173  PHE173      0.1639
    134  C         34.8980   -5.6890   30.6410 C.2   173  PHE173      0.2290
    135  O         35.7550   -5.8530   29.7730 O.2   173  PHE173     -0.2864
    136  CB        32.9670   -6.8620   29.5540 C.3   173  PHE173      0.0560
    137  CG        31.8210   -7.8040   29.7130 C.ar  173  PHE173     -0.0200
    138  CD1       32.0400   -9.1280   30.0770 C.ar  173  PHE173     -0.0042
    139  CD2       30.5180   -7.3670   29.5530 C.ar  173  PHE173     -0.0042
    140  CE1       30.9700  -10.0040   30.2850 C.ar  173  PHE173     -0.0003
    141  CE2       29.4460   -8.2340   29.7550 C.ar  173  PHE173     -0.0003
    142  CZ        29.6750   -9.5550   30.1230 C.ar  173  PHE173     -0.0000
    143  N         17.3250  -10.4300   36.4110 N.3   208  LYS208     -0.1245
    144  CA        16.3680  -10.0630   35.3810 C.3   208  LYS208      0.1561
    145  C         14.9300  -10.3170   35.8150 C.2   208  LYS208      0.2260
    146  O         14.0080  -10.0790   35.0360 O.2   208  LYS208     -0.2867
    147  CB        16.6340  -10.8550   34.1010 C.3   208  LYS208      0.0271
    148  CG        18.0800  -10.9210   33.6680 C.3   208  LYS208      0.0035
    149  CD        18.6170   -9.5890   33.1670 C.3   208  LYS208      0.0206
    150  CE        19.8950   -9.8370   32.3910 C.3   208  LYS208      0.1093
    151  NZ        20.5760   -8.6130   31.9320 N.3   208  LYS208     -0.1314
@<TRIPOS>BOND
     1    37    38    1
     2    38    39    1
     3    38    41    1
     4    40    39    2
     5    39    45   am
     6    45    46    1
     7    48    47    2
     8    56    55    2
     9    47    46    1
    10    46    49    1
    11    55    54    1
    12    42    41    1
    13    42    43    1
    14     1     7    1
    15     1     2    1
    16    57    54    1
    17    57    58    1
    18     7     6    1
    19    54    53    1
    20    49    50    1
    21    43    44    1
    22     2     3    1
    23     2     5    1
    24     4     3    2
    25    14    12    1
    26    50    51   ar
    27    50    52   ar
    28     3     8   am
    29    58    60   ar
    30    58    59   ar
    31    60    62   ar
    32    94    91    1
    33     6     5    1
    34     8     9    1
    35    12    13    1
    36    12     9    1
    37    59    61   ar
    38    62    63   ar
    39    91    90    1
    40    91    92    1
    41     9    10    1
    42    95    92   am
    43    95    96    1
    44   102   104   ar
    45   102   100   ar
    46    92    93    2
    47    34    35    1
    48    34    31    1
    49    61    63   ar
    50    63    64    1
    51    99    96    1
    52    99   100    1
    53    33    32    2
    54    96    97    1
    55    97    98    2
    56   104   105   ar
    57    35    36    1
    58    10    11    2
    59    10    15   am
    60   100   101   ar
    61    65    66    1
    62    32    31    1
    63    31    30    1
    64    15    16    1
    65   105   103   ar
    66    36    30    1
    67   101   103   ar
    68    68    67    2
    69    66    67    1
    70    30    25   am
    71    18    17    2
    72    67    69   am
    73    16    17    1
    74    82    83    2
    75    82    81    1
    76    17    19   am
    77    25    26    2
    78    25    24    1
    79    87    89   ar
    80    87    85   ar
    81    69    70    1
    82    84    81    1
    83    84    85    1
    84    81    80    1
    85    27    29    1
    86    27    24    1
    87    27    28    1
    88    89    88   ar
    89    85    86   ar
    90    24    23    1
    91    19    20    1
    92    70    73    1
    93    70    71    1
    94    22    21    2
    95    23    21   am
    96   120   118   am
    97    21    20    1
    98    73    75    1
    99    73    74    1
   100    88    86   ar
   101    71    76   am
   102    71    72    2
   103    76    77    1
   104   139   137   ar
   105   139   141   ar
   106   136   137    1
   107   136   133    1
   108   118   119    2
   109   118   117    1
   110   112   110    1
   111   137   138   ar
   112   141   142   ar
   113   135   134    2
   114   138   140   ar
   115   142   140   ar
   116   117   114    1
   117    77    78    1
   118   134   133    1
   119   110   111    1
   120   110   107    1
   121   133   132    1
   122   116   115    2
   123   114   115    1
   124   114   113    1
   125   131   129    1
   126    78    79    2
   127   132   123   am
   128   151   150    1
   129   109   108    2
   130   108   107    1
   131   107   106    1
   132   150   149    1
   133   129   130    1
   134   129   128    2
   135   123   124    2
   136   123   122    1
   137   149   148    1
   138   128   127    1
   139   148   147    1
   140   125   122    1
   141   125   126    1
   142   121   122    1
   143   147   144    1
   144   127   126    1
   145   146   145    2
   146   144   145    1
   147   144   143    1
