@<TRIPOS>MOLECULE
tmp/1hosA00.pdb
 112 105 0 0 0
SMALL
GASTEIGER

@<TRIPOS>ATOM
      1  N         -6.1570   28.6380   21.4010 N.3     8  ARG8       -0.1245
      2  CA        -6.3600   27.9850   22.6920 C.3     8  ARG8        0.1563
      3  C         -6.6250   29.0010   23.8050 C.2     8  ARG8        0.2260
      4  O         -5.9630   30.0430   23.8730 O.2     8  ARG8       -0.2867
      5  CB        -5.1520   27.1540   23.1180 C.3     8  ARG8        0.0307
      6  CG        -5.2330   25.8410   22.4170 C.3     8  ARG8        0.0489
      7  CD        -4.2570   24.8430   22.9240 C.3     8  ARG8        0.2205
      8  NE        -4.1910   23.8010   21.9140 N.pl3   8  ARG8       -0.0865
      9  CZ        -3.0400   23.1920   21.5600 C.cat   8  ARG8        0.5346
     10  NH1       -1.8890   23.4360   22.1740 N.pl3   8  ARG8        0.1354
     11  NH2       -3.0230   22.2400   20.6310 N.pl3   8  ARG8        0.1354
     12  N         -4.6300   26.2980   30.4380 N.3    23  LEU23      -0.1245
     13  CA        -5.7370   26.1990   29.5180 C.3    23  LEU23       0.1561
     14  C         -7.0990   26.3700   30.2120 C.2    23  LEU23       0.2260
     15  O         -7.3310   25.7470   31.2380 O.2    23  LEU23      -0.2867
     16  CB        -5.5380   24.8320   28.8570 C.3    23  LEU23       0.0270
     17  CG        -6.4260   24.3550   27.7590 C.3    23  LEU23       0.0019
     18  CD1       -6.1730   25.1720   26.5240 C.3    23  LEU23       0.0001
     19  CD2       -6.0050   22.9960   27.2930 C.3    23  LEU23       0.0001
     20  N        -10.3530   25.2500   30.6550 N.3    25  ASP25      -0.1239
     21  CA       -11.1010   24.1520   30.1970 C.3    25  ASP25       0.1674
     22  C        -12.4460   23.6460   30.7220 C.2    25  ASP25       0.2266
     23  O        -12.5320   22.9130   31.6800 O.2    25  ASP25      -0.2867
     24  CB        -9.9950   23.1660   30.2030 C.3    25  ASP25       0.1410
     25  CG       -10.2610   21.8280   29.6510 C.2    25  ASP25       0.3668
     26  OD1      -11.2230   21.6310   28.9680 O.co2  25  ASP25      -0.2456
     27  OD2       -9.4860   20.9360   29.9160 O.co2  25  ASP25      -0.2456
     28  N        -14.1180   21.0980   29.6300 N.3    27  GLY27      -0.1210
     29  CA       -14.2360   19.6620   29.5020 C.3    27  GLY27       0.1956
     30  C        -13.4510   18.9310   30.5650 C.2    27  GLY27       0.2612
     31  O        -13.2960   17.7000   30.5130 O.2    27  GLY27      -0.2717
     32  N        -13.0060   19.6670   31.5930 N.am   28  ALA28      -0.1965
     33  CA       -12.2220   19.0780   32.6580 C.3    28  ALA28       0.1728
     34  C        -12.9650   19.3050   33.9440 C.2    28  ALA28       0.2616
     35  O        -13.3850   20.4130   34.2590 O.2    28  ALA28      -0.2715
     36  CB       -10.8810   19.7260   32.7740 C.3    28  ALA28       0.0334
     37  N        -13.2600   18.2290   34.6520 N.am   29  ASP29      -0.1957
     38  CA       -13.9610   18.3960   35.8850 C.3    29  ASP29       0.1840
     39  C        -13.0370   18.9540   36.9060 C.2    29  ASP29       0.2622
     40  O        -13.5050   19.7670   37.7020 O.2    29  ASP29      -0.2715
     41  CB       -14.4200   17.1570   36.5010 C.3    29  ASP29       0.1450
     42  CG       -15.4800   16.3610   35.8080 C.2    29  ASP29       0.3671
     43  OD1      -16.2230   16.8330   34.9400 O.co2  29  ASP29      -0.2456
     44  OD2      -15.5390   15.2190   36.2090 O.co2  29  ASP29      -0.2456
     45  N        -11.7680   18.5110   36.8190 N.am   30  ASP30      -0.1971
     46  CA       -10.6770   18.8600   37.6910 C.3    30  ASP30       0.1709
     47  C         -9.6310   19.7700   37.0840 C.2    30  ASP30       0.2293
     48  O         -9.5160   19.9040   35.8500 O.2    30  ASP30      -0.2864
     49  CB        -9.9650   17.6130   38.1110 C.3    30  ASP30       0.1436
     50  CG       -10.7030   16.6660   39.0630 C.2    30  ASP30       0.3671
     51  OD1      -10.9040   17.0320   40.2310 O.co2  30  ASP30      -0.2456
     52  OD2      -11.0570   15.5540   38.6570 O.co2  30  ASP30      -0.2456
     53  N         -5.7380   20.1170   36.5620 N.3    32  VAL32      -0.1245
     54  CA        -4.6110   19.2050   36.6900 C.3    32  VAL32       0.1561
     55  C         -3.3870   19.9740   36.2120 C.2    32  VAL32       0.2260
     56  O         -3.4310   20.5580   35.1320 O.2    32  VAL32      -0.2867
     57  CB        -4.9000   17.9200   35.8880 C.3    32  VAL32       0.0252
     58  CG1       -4.7360   17.9490   34.4180 C.3    32  VAL32       0.0019
     59  CG2       -3.8960   16.9790   36.4400 C.3    32  VAL32       0.0019
     60  N         -6.8630    9.8000   37.3460 N.3    47  ILE47      -0.1231
     61  CA        -7.9360   10.4110   36.5520 C.3    47  ILE47       0.1692
     62  C         -7.9540    9.7520   35.1790 C.2    47  ILE47       0.2593
     63  O         -6.9700    9.1020   34.8050 O.2    47  ILE47      -0.2718
     64  CB        -7.7280   11.9420   36.3430 C.3    47  ILE47       0.0266
     65  CG1       -6.3460   12.2410   35.8250 C.3    47  ILE47       0.0019
     66  CG2       -7.9960   12.6690   37.6530 C.3    47  ILE47       0.0020
     67  CD1       -6.2750   13.7730   35.5850 C.3    47  ILE47       0.0001
     68  N         -9.0300    9.8560   34.4080 N.am   48  GLY48      -0.1942
     69  CA        -8.9890    9.4230   33.0270 C.3    48  GLY48       0.2014
     70  C         -9.3020   10.5250   32.0260 C.2    48  GLY48       0.2639
     71  O        -10.0090   11.5110   32.3070 O.2    48  GLY48      -0.2714
     72  N         -8.8820   10.3130   30.8150 N.am   49  GLY49      -0.1939
     73  CA        -9.1460   11.2300   29.7340 C.3    49  GLY49       0.2014
     74  C         -9.1170   10.3770   28.4690 C.2    49  GLY49       0.2638
     75  O         -9.6510    9.2560   28.4850 O.2    49  GLY49      -0.2714
     76  N         -8.5590   10.7460   27.3250 N.am   50  ILE50      -0.1977
     77  CA        -8.5800    9.7790   26.2440 C.3    50  ILE50       0.1596
     78  C         -7.2500    9.0450   26.3510 C.2    50  ILE50       0.2287
     79  O         -6.2320    9.5690   26.8170 O.2    50  ILE50      -0.2864
     80  CB        -8.7680   10.5120   24.8840 C.3    50  ILE50       0.0276
     81  CG1       -7.5000   11.1810   24.4490 C.3    50  ILE50       0.0022
     82  CG2       -9.8920   11.5840   24.9990 C.3    50  ILE50       0.0022
     83  CD1       -7.7730   11.6930   23.0430 C.3    50  ILE50       0.0001
     84  N          0.8810   15.7580   32.6840 N.3    80  THR80      -0.1204
     85  CA        -0.1370   16.2170   31.7810 C.3    80  THR80       0.1979
     86  C          0.6560   17.0730   30.8130 C.2    80  THR80       0.2460
     87  O          1.5600   17.7580   31.2560 O.2    80  THR80      -0.2732
     88  CB        -1.1870   16.9150   32.6980 C.3    80  THR80       0.1783
     89  OG1       -2.1210   17.5670   31.8570 O.3    80  THR80      -0.2211
     90  CG2       -0.5870   17.8780   33.6640 C.3    80  THR80       0.0376
     91  N          0.5090   17.0680   29.4900 N.am   81  PRO81      -0.2717
     92  CA         1.2970   17.9320   28.6060 C.3    81  PRO81       0.1535
     93  C          0.8650   19.4110   28.5660 C.2    81  PRO81       0.2598
     94  O          1.4530   20.2260   27.8810 O.2    81  PRO81      -0.2715
     95  CB         1.1620   17.2280   27.2730 C.3    81  PRO81       0.0310
     96  CG        -0.2770   16.7310   27.3060 C.3    81  PRO81       0.0237
     97  CD        -0.4950   16.2790   28.7390 C.3    81  PRO81       0.0939
     98  N         -0.1860   19.8350   29.2380 N.am   82  VAL82      -0.1978
     99  CA        -0.6940   21.2060   29.2380 C.3    82  VAL82       0.1596
    100  C         -1.2040   21.3940   30.6460 C.2    82  VAL82       0.2287
    101  O         -1.6460   20.4250   31.2250 O.2    82  VAL82      -0.2864
    102  CB        -1.9410   21.3830   28.2890 C.3    82  VAL82       0.0276
    103  CG1       -2.1810   22.8390   28.0560 C.3    82  VAL82       0.0022
    104  CG2       -1.7550   20.7300   26.9510 C.3    82  VAL82       0.0022
    105  N         -4.2040   22.4360   33.1400 N.3    84  ILE84      -0.1245
    106  CA        -5.6200   22.5720   32.8800 C.3    84  ILE84       0.1561
    107  C         -6.3920   23.1780   34.0440 C.2    84  ILE84       0.2260
    108  O         -6.2030   22.7780   35.2060 O.2    84  ILE84      -0.2867
    109  CB        -6.1270   21.1380   32.5390 C.3    84  ILE84       0.0252
    110  CG1       -5.5410   20.6910   31.2470 C.3    84  ILE84       0.0019
    111  CG2       -7.6310   21.0860   32.4150 C.3    84  ILE84       0.0019
    112  CD1       -5.5420   19.1870   31.0900 C.3    84  ILE84       0.0001
@<TRIPOS>BOND
     1    11     9    1
     2     1     2    1
     3     9     8    2
     4     9    10    1
     5     8     7    1
     6     6     7    1
     7     6     5    1
     8     2     5    1
     9     2     3    1
    10    83    81    1
    11     3     4    2
    12    81    80    1
    13    80    82    1
    14    80    77    1
    15    77    78    1
    16    77    76    1
    17    78    79    2
    18    18    17    1
    19   104   102    1
    20    95    96    1
    21    95    92    1
    22    19    17    1
    23    96    97    1
    24    76    74   am
    25    17    16    1
    26    94    93    2
    27   103   102    1
    28   102    99    1
    29    74    75    2
    30    74    73    1
    31    93    92    1
    32    93    98   am
    33    92    91    1
    34    97    91    1
    35    16    13    1
    36    26    25   ar
    37    99    98    1
    38    99   100    1
    39    91    86   am
    40    29    28    1
    41    29    30    1
    42    13    14    1
    43    13    12    1
    44    25    27   ar
    45    25    24    1
    46    73    72    1
    47    21    24    1
    48    21    20    1
    49    21    22    1
    50    14    15    2
    51    31    30    2
    52    30    32   am
    53   100   101    2
    54    22    23    2
    55    86    87    2
    56    86    85    1
    57    72    70   am
    58   112   110    1
    59   110   109    1
    60    32    33    1
    61    85    84    1
    62    85    88    1
    63    89    88    1
    64    70    71    2
    65    70    69    1
    66   111   109    1
    67   109   106    1
    68    33    36    1
    69    33    34    1
    70    88    90    1
    71   106   105    1
    72   106   107    1
    73    69    68    1
    74    34    35    2
    75    34    37   am
    76   107   108    2
    77    68    62   am
    78    58    57    1
    79    37    38    1
    80    63    62    2
    81    43    42   ar
    82    56    55    2
    83    62    61    1
    84    67    65    1
    85    42    44   ar
    86    42    41    1
    87    65    64    1
    88    48    47    2
    89    38    41    1
    90    38    39    1
    91    57    59    1
    92    57    54    1
    93    55    54    1
    94    64    61    1
    95    64    66    1
    96    61    60    1
    97    53    54    1
    98    45    39   am
    99    45    46    1
   100    39    40    2
   101    47    46    1
   102    46    49    1
   103    49    50    1
   104    52    50   ar
   105    50    51   ar
