@<TRIPOS>MOLECULE
tmp/1hovA00.pdb
 225 225 0 0 0
SMALL
GASTEIGER

@<TRIPOS>ATOM
      1  N          2.9070   12.5880    6.7050 N.3    42  VAL42      -0.1245
      2  CA         2.0440   12.4750    7.9140 C.3    42  VAL42       0.1561
      3  C          1.2340   13.7630    8.0670 C.2    42  VAL42       0.2260
      4  O          0.1100   13.7580    8.5270 O.2    42  VAL42      -0.2867
      5  CB         2.9270   12.2360    9.1480 C.3    42  VAL42       0.0252
      6  CG1        3.2590   13.5500    9.8620 C.3    42  VAL42       0.0019
      7  CG2        2.1950   11.3090   10.1210 C.3    42  VAL42       0.0019
      8  N         12.9970   16.0180   28.6230 N.3    81  GLY81      -0.1210
      9  CA        12.7770   17.4890   28.7260 C.3    81  GLY81       0.1956
     10  C         12.7340   18.0930   27.3310 C.2    81  GLY81       0.2612
     11  O         12.1700   17.5290   26.4170 O.2    81  GLY81      -0.2717
     12  N         13.3350   19.2300   27.1570 N.am   82  LEU82      -0.1965
     13  CA        13.3430   19.8630   25.8230 C.3    82  LEU82       0.1728
     14  C         13.7890   18.8220   24.7890 C.2    82  LEU82       0.2616
     15  O         14.8430   18.2210   24.8970 O.2    82  LEU82      -0.2715
     16  CB        14.2770   21.0880   25.8790 C.3    82  LEU82       0.0311
     17  CG        15.6020   20.8460   25.1440 C.3    82  LEU82       0.0022
     18  CD1       15.4000   21.0240   23.6360 C.3    82  LEU82       0.0001
     19  CD2       16.6360   21.8600   25.6380 C.3    82  LEU82       0.0001
     20  N         12.9740   18.5950   23.7970 N.am   83  LEU83      -0.1963
     21  CA        13.3210   17.5920   22.7560 C.3    83  LEU83       0.1728
     22  C         13.5840   18.3220   21.4380 C.2    83  LEU83       0.2616
     23  O         14.2510   17.8170   20.5580 O.2    83  LEU83      -0.2715
     24  CB        12.1530   16.6140   22.5790 C.3    83  LEU83       0.0311
     25  CG        11.6170   16.1950   23.9510 C.3    83  LEU83       0.0022
     26  CD1       10.3340   15.3780   23.7750 C.3    83  LEU83       0.0001
     27  CD2       12.6640   15.3410   24.6730 C.3    83  LEU83       0.0001
     28  N         13.0610   19.5120   21.2990 N.am   84  ALA84      -0.1963
     29  CA        13.2790   20.2810   20.0380 C.3    84  ALA84       0.1728
     30  C         12.3600   21.5100   20.0140 C.2    84  ALA84       0.2616
     31  O         11.6250   21.7650   20.9480 O.2    84  ALA84      -0.2715
     32  CB        12.9670   19.3810   18.8400 C.3    84  ALA84       0.0334
     33  N         12.3950   22.2790   18.9540 N.am   85  HIS85      -0.1959
     34  CA        11.5210   23.4900   18.8850 C.3    85  HIS85       0.1787
     35  C         11.7540   24.2380   17.5680 C.2    85  HIS85       0.2620
     36  O         12.6120   23.8850   16.7820 O.2    85  HIS85      -0.2715
     37  CB        11.8540   24.4220   20.0520 C.3    85  HIS85       0.0785
     38  CG        13.2230   25.0050   19.8500 C.ar   85  HIS85       0.0821
     39  ND1       14.2970   24.6620   20.6550 N.ar   85  HIS85      -0.2267
     40  CD2       13.7070   25.9110   18.9410 C.ar   85  HIS85       0.1154
     41  CE1       15.3650   25.3520   20.2190 C.ar   85  HIS85       0.1986
     42  NE2       15.0610   26.1280   19.1750 N.ar   85  HIS85      -0.2212
     43  N         10.9960   25.2780   17.3280 N.am   86  ALA86      -0.1977
     44  CA        11.1690   26.0650   16.0700 C.3    86  ALA86       0.1597
     45  C         10.8140   27.5330   16.3350 C.2    86  ALA86       0.2287
     46  O         10.2290   27.8650   17.3470 O.2    86  ALA86      -0.2864
     47  CB        10.2490   25.5090   14.9800 C.3    86  ALA86       0.0319
     48  N         10.6470   10.5370   13.1760 N.3   115  PHE115     -0.1227
     49  CA         9.3190   10.8090   12.5500 C.3   115  PHE115      0.1736
     50  C          8.3710   11.4240   13.5870 C.2   115  PHE115      0.2595
     51  O          7.5490   12.2600   13.2680 O.2   115  PHE115     -0.2718
     52  CB         8.7290    9.4870   12.0190 C.3   115  PHE115      0.0547
     53  CG         7.2140    9.5530   12.0030 C.ar  115  PHE115     -0.0202
     54  CD1        6.5640   10.5720   11.2960 C.ar  115  PHE115     -0.0042
     55  CD2        6.4640    8.6000   12.7040 C.ar  115  PHE115     -0.0042
     56  CE1        5.1660   10.6390   11.2900 C.ar  115  PHE115     -0.0003
     57  CE2        5.0660    8.6670   12.6960 C.ar  115  PHE115     -0.0003
     58  CZ         4.4160    9.6870   11.9900 C.ar  115  PHE115     -0.0000
     59  N          8.4610   11.0040   14.8150 N.am  116  LEU116     -0.1966
     60  CA         7.5500   11.5450   15.8500 C.3   116  LEU116      0.1728
     61  C          8.0680   12.9040   16.3320 C.2   116  LEU116      0.2616
     62  O          7.3780   13.9020   16.2510 O.2   116  LEU116     -0.2715
     63  CB         7.4930   10.5420   17.0090 C.3   116  LEU116      0.0311
     64  CG         6.2630   10.7880   17.8890 C.3   116  LEU116      0.0022
     65  CD1        6.5810   11.9040   18.8700 C.3   116  LEU116      0.0001
     66  CD2        5.0560   11.1860   17.0350 C.3   116  LEU116      0.0001
     67  N          9.2770   12.9640   16.8180 N.am  117  VAL117     -0.1977
     68  CA         9.8190   14.2700   17.2810 C.3   117  VAL117      0.1596
     69  C          9.6090   15.3130   16.1810 C.2   117  VAL117      0.2287
     70  O          9.2590   16.4480   16.4420 O.2   117  VAL117     -0.2864
     71  CB        11.3170   14.1380   17.5700 C.3   117  VAL117      0.0276
     72  CG1       11.5280   13.6640   19.0080 C.3   117  VAL117      0.0022
     73  CG2       11.9470   13.1290   16.6050 C.3   117  VAL117      0.0022
     74  N          7.3090   15.2260   13.6050 N.3   119  ALA119     -0.1231
     75  CA         5.8460   15.4960   13.4470 C.3   119  ALA119      0.1694
     76  C          5.4490   16.6640   14.3540 C.2   119  ALA119      0.2592
     77  O          4.9810   17.6950   13.9000 O.2   119  ALA119     -0.2718
     78  CB         5.0490   14.2490   13.8380 C.3   119  ALA119      0.0304
     79  N          5.6470   16.5190   15.6350 N.am  120  HIS120     -0.1962
     80  CA         5.2960   17.6240   16.5630 C.3   120  HIS120      0.1787
     81  C          5.8960   18.9240   16.0280 C.2   120  HIS120      0.2620
     82  O          5.1980   19.8930   15.7960 O.2   120  HIS120     -0.2715
     83  CB         5.8680   17.3370   17.9520 C.3   120  HIS120      0.0785
     84  CG         5.3620   18.3730   18.9190 C.ar  120  HIS120      0.0821
     85  ND1        4.2930   18.1320   19.7670 N.ar  120  HIS120     -0.2267
     86  CD2        5.7600   19.6630   19.1760 C.ar  120  HIS120      0.1154
     87  CE1        4.0860   19.2490   20.4880 C.ar  120  HIS120      0.1986
     88  NE2        4.9530   20.2130   20.1670 N.ar  120  HIS120     -0.2212
     89  N          7.1870   18.9490   15.8240 N.am  121  GLU121     -0.1977
     90  CA         7.8400   20.1810   15.2970 C.3   121  GLU121      0.1602
     91  C          7.3640   20.4320   13.8670 C.2   121  GLU121      0.2287
     92  O          7.5720   21.4920   13.3120 O.2   121  GLU121     -0.2864
     93  CB         9.3570   19.9950   15.3190 C.3   121  GLU121      0.0415
     94  CG         9.8220   19.8220   16.7660 C.3   121  GLU121      0.1163
     95  CD         9.3220   20.9980   17.6070 C.2   121  GLU121      0.3649
     96  OE1        9.0470   22.0390   17.0330 O.co2 121  GLU121     -0.2457
     97  OE2        9.2190   20.8360   18.8120 O.co2 121  GLU121     -0.2457
     98  N          4.3980   22.8270   14.7310 N.3   124  HIS124     -0.1241
     99  CA         4.8160   24.1630   15.2420 C.3   124  HIS124      0.1621
    100  C          5.4130   24.9800   14.0970 C.2   124  HIS124      0.2264
    101  O          5.0500   26.1190   13.8830 O.2   124  HIS124     -0.2867
    102  CB         5.8720   23.9820   16.3290 C.3   124  HIS124      0.0745
    103  CG         5.2150   23.9960   17.6800 C.ar  124  HIS124      0.0817
    104  ND1        5.0490   25.1620   18.4110 N.ar  124  HIS124     -0.2268
    105  CD2        4.6970   22.9900   18.4590 C.ar  124  HIS124      0.1154
    106  CE1        4.4570   24.8320   19.5740 C.ar  124  HIS124      0.1986
    107  NE2        4.2210   23.5190   19.6550 N.ar  124  HIS124     -0.2212
    108  N          0.1080   25.1360   21.0500 N.3   130  HIS130     -0.1241
    109  CA        -0.5640   24.2120   22.0010 C.3   130  HIS130      0.1621
    110  C         -1.9740   24.7300   22.2960 C.2   130  HIS130      0.2264
    111  O         -2.1860   25.9130   22.4740 O.2   130  HIS130     -0.2867
    112  CB         0.2530   24.1310   23.2910 C.3   130  HIS130      0.0745
    113  CG         1.6130   23.5760   22.9700 C.ar  130  HIS130      0.0817
    114  ND1        2.5160   23.2070   23.9540 N.ar  130  HIS130     -0.2268
    115  CD2        2.2340   23.3150   21.7740 C.ar  130  HIS130      0.1154
    116  CE1        3.6220   22.7520   23.3380 C.ar  130  HIS130      0.1986
    117  NE2        3.5030   22.7980   22.0080 N.ar  130  HIS130     -0.2212
    118  N         -5.0270   17.6190   25.8270 N.3   134  PRO134     -0.2116
    119  CA        -4.0270   16.5610   26.0580 C.3   134  PRO134      0.1372
    120  C         -4.0730   15.5270   24.9380 C.2   134  PRO134      0.2244
    121  O         -3.0600   15.0030   24.5200 O.2   134  PRO134     -0.2868
    122  CB        -4.4460   15.9500   27.3970 C.3   134  PRO134      0.0268
    123  CG        -5.9390   16.3030   27.5900 C.3   134  PRO134      0.0207
    124  CD        -6.2020   17.5480   26.7230 C.3   134  PRO134      0.0892
    125  N         -4.5100   16.1200   22.0300 N.3   136  ALA136     -0.1231
    126  CA        -4.1870   16.8170   20.7510 C.3   136  ALA136      0.1694
    127  C         -2.7370   16.5390   20.3580 C.2   136  ALA136      0.2591
    128  O         -1.9870   15.9330   21.0970 O.2   136  ALA136     -0.2718
    129  CB        -4.3650   18.3250   20.9320 C.3   136  ALA136      0.0304
    130  N         -2.3350   16.9950   19.2030 N.am  137  LEU137     -0.1980
    131  CA        -0.9290   16.7800   18.7600 C.3   137  LEU137      0.1596
    132  C         -0.0760   17.9360   19.2840 C.2   137  LEU137      0.2287
    133  O          1.0640   17.7590   19.6670 O.2   137  LEU137     -0.2864
    134  CB        -0.8800   16.7480   17.2280 C.3   137  LEU137      0.0297
    135  CG         0.5710   16.6800   16.7370 C.3   137  LEU137      0.0022
    136  CD1        1.3120   15.5370   17.4340 C.3   137  LEU137      0.0001
    137  CD2        0.5720   16.4340   15.2260 C.3   137  LEU137      0.0001
    138  N         -0.5530   19.2870   21.9430 N.3   139  ALA139     -0.1231
    139  CA        -0.6910   19.2530   23.4250 C.3   139  ALA139      0.1679
    140  C          0.6900   19.4230   24.0720 C.2   139  ALA139      0.2434
    141  O          1.6990   19.1250   23.4630 O.2   139  ALA139     -0.2733
    142  CB        -1.3010   17.9170   23.8500 C.3   139  ALA139      0.0304
    143  N          0.6880   19.9190   25.2850 N.am  140  PRO140     -0.2718
    144  CA         1.9230   20.1690   26.0500 C.3   140  PRO140      0.1535
    145  C          2.4920   18.8860   26.6700 C.2   140  PRO140      0.2598
    146  O          3.2570   18.9410   27.6110 O.2   140  PRO140     -0.2715
    147  CB         1.4750   21.1420   27.1430 C.3   140  PRO140      0.0310
    148  CG        -0.0540   20.9560   27.2970 C.3   140  PRO140      0.0237
    149  CD        -0.5500   20.2820   26.0040 C.3   140  PRO140      0.0939
    150  N          2.1530   17.7340   26.1550 N.am  141  ILE141     -0.1964
    151  CA         2.7210   16.4850   26.7440 C.3   141  ILE141      0.1727
    152  C          3.1900   15.5580   25.6220 C.2   141  ILE141      0.2616
    153  O          2.5000   15.3420   24.6470 O.2   141  ILE141     -0.2715
    154  CB         1.6850   15.7540   27.6090 C.3   141  ILE141      0.0290
    155  CG1        0.4570   16.6380   27.8500 C.3   141  ILE141      0.0022
    156  CG2        2.3130   15.4040   28.9610 C.3   141  ILE141      0.0023
    157  CD1       -0.5910   16.3690   26.7690 C.3   141  ILE141      0.0001
    158  N          4.3680   15.0170   25.7580 N.am  142  TYR142     -0.1960
    159  CA         4.9120   14.1070   24.7070 C.3   142  TYR142      0.1771
    160  C          4.1900   12.7610   24.7520 C.2   142  TYR142      0.2620
    161  O          4.1900   12.0790   25.7550 O.2   142  TYR142     -0.2715
    162  CB         6.4110   13.8960   24.9450 C.3   142  TYR142      0.0574
    163  CG         7.0020   13.0840   23.8140 C.ar  142  TYR142     -0.0198
    164  CD1        7.2500   13.6800   22.5700 C.ar  142  TYR142     -0.0009
    165  CD2        7.3060   11.7330   24.0110 C.ar  142  TYR142     -0.0009
    166  CE1        7.8000   12.9220   21.5270 C.ar  142  TYR142      0.0417
    167  CE2        7.8560   10.9760   22.9700 C.ar  142  TYR142      0.0417
    168  CZ         8.1030   11.5690   21.7280 C.ar  142  TYR142      0.1957
    169  OH         8.6470   10.8210   20.7030 O.3   142  TYR142     -0.2866
    170  N          3.5810   12.3710   23.6640 N.am  143  THR143     -0.1937
    171  CA         2.8650   11.0660   23.6310 C.3   143  THR143      0.2028
    172  C          3.4030   10.2350   22.4670 C.2   143  THR143      0.2642
    173  O          3.2000   10.5630   21.3150 O.2   143  THR143     -0.2714
    174  CB         1.3670   11.3030   23.4360 C.3   143  THR143      0.1808
    175  OG1        0.8610   12.0530   24.5310 O.3   143  THR143     -0.2208
    176  CG2        0.6440    9.9570   23.3570 C.3   143  THR143      0.0379
    177  N          4.0960    9.1680   22.7510 N.am  144  TYR144     -0.1959
    178  CA         4.6530    8.3340   21.6530 C.3   144  TYR144      0.1771
    179  C          3.5260    7.8070   20.7670 C.2   144  TYR144      0.2620
    180  O          2.3750    7.7650   21.1570 O.2   144  TYR144     -0.2715
    181  CB         5.4180    7.1490   22.2330 C.3   144  TYR144      0.0574
    182  CG         6.1260    6.4280   21.1140 C.ar  144  TYR144     -0.0198
    183  CD1        7.3160    6.9470   20.5890 C.ar  144  TYR144     -0.0009
    184  CD2        5.5870    5.2470   20.5910 C.ar  144  TYR144     -0.0009
    185  CE1        7.9670    6.2840   19.5420 C.ar  144  TYR144      0.0417
    186  CE2        6.2390    4.5830   19.5450 C.ar  144  TYR144      0.0417
    187  CZ         7.4280    5.1020   19.0200 C.ar  144  TYR144      0.1957
    188  OH         8.0700    4.4500   17.9860 O.3   144  TYR144     -0.2866
    189  N          3.8580    7.4060   19.5750 N.am  145  THR145     -0.1951
    190  CA         2.8240    6.8750   18.6440 C.3   145  THR145      0.1897
    191  C          2.8310    5.3450   18.6520 C.2   145  THR145      0.2313
    192  O          3.4060    4.7190   17.7840 O.2   145  THR145     -0.2863
    193  CB         3.1310    7.3550   17.2280 C.3   145  THR145      0.1794
    194  OG1        4.5340    7.3140   17.0110 O.3   145  THR145     -0.2208
    195  CG2        2.6300    8.7820   17.0560 C.3   145  THR145      0.0378
    196  N          0.3330    5.5090   15.8420 N.3   148  PHE148     -0.1227
    197  CA         0.2180    6.7320   14.9840 C.3   148  PHE148      0.1736
    198  C         -1.2460    7.1670   14.8620 C.2   148  PHE148      0.2595
    199  O         -1.9700    6.6990   14.0050 O.2   148  PHE148     -0.2718
    200  CB         0.7740    6.4380   13.5870 C.3   148  PHE148      0.0547
    201  CG         0.4440    7.5870   12.6620 C.ar  148  PHE148     -0.0202
    202  CD1        0.3360    8.8840   13.1760 C.ar  148  PHE148     -0.0042
    203  CD2        0.2460    7.3570   11.2930 C.ar  148  PHE148     -0.0042
    204  CE1        0.0310    9.9540   12.3250 C.ar  148  PHE148     -0.0003
    205  CE2       -0.0590    8.4270   10.4410 C.ar  148  PHE148     -0.0003
    206  CZ        -0.1670    9.7260   10.9570 C.ar  148  PHE148     -0.0000
    207  N         -1.6870    8.0680   15.6980 N.am  149  ARG149     -0.1966
    208  CA        -3.1010    8.5320   15.6040 C.3   149  ARG149      0.1729
    209  C         -3.1230   10.0340   15.3060 C.2   149  ARG149      0.2616
    210  O         -2.4280   10.8110   15.9280 O.2   149  ARG149     -0.2715
    211  CB        -3.8370    8.2590   16.9160 C.3   149  ARG149      0.0348
    212  CG        -2.8890    8.4700   18.1010 C.3   149  ARG149      0.0492
    213  CD        -3.6730    9.0470   19.2780 C.3   149  ARG149      0.2205
    214  NE        -4.0260    7.9560   20.2320 N.pl3 149  ARG149     -0.0865
    215  CZ        -5.0160    8.1170   21.0720 C.cat 149  ARG149      0.5346
    216  NH1       -5.6890    9.2350   21.0820 N.pl3 149  ARG149      0.1354
    217  NH2       -5.3330    7.1590   21.9050 N.pl3 149  ARG149      0.1354
    218  N         -3.9140   10.4430   14.3540 N.am  150  LEU150     -0.1977
    219  CA        -3.9820   11.8930   14.0010 C.3   150  LEU150      0.1596
    220  C         -5.0430   12.5890   14.8620 C.2   150  LEU150      0.2287
    221  O         -5.4780   12.0660   15.8700 O.2   150  LEU150     -0.2864
    222  CB        -4.3640   12.0310   12.5240 C.3   150  LEU150      0.0297
    223  CG        -3.2090   11.5620   11.6390 C.3   150  LEU150      0.0022
    224  CD1       -3.5780   11.7810   10.1690 C.3   150  LEU150      0.0001
    225  CD2       -1.9530   12.3690   11.9730 C.3   150  LEU150      0.0001
@<TRIPOS>BOND
     1     1     2    1
     2     2     3    1
     3     2     5    1
     4     3     4    2
     5     5     6    1
     6     5     7    1
     7   224   223    1
     8   205   206   ar
     9   205   203   ar
    10   206   204   ar
    11    56    54   ar
    12    56    58   ar
    13   203   201   ar
    14    54    53   ar
    15   223   225    1
    16   223   222    1
    17    58    57   ar
    18    53    52    1
    19    53    55   ar
    20    52    49    1
    21   204   202   ar
    22   222   219    1
    23    49    48    1
    24    49    50    1
    25   201   202   ar
    26   201   200    1
    27    57    55   ar
    28    51    50    2
    29    92    91    2
    30    75    74    1
    31    75    78    1
    32    75    76    1
    33    50    59   am
    34   200   197    1
    35    91    90    1
    36   101   100    2
    37    77    76    2
    38   219   218    1
    39   219   220    1
    40   199   198    2
    41   100    99    1
    42    76    79   am
    43   218   209   am
    44    98    99    1
    45    59    60    1
    46   198   197    1
    47   198   207   am
    48   220   221    2
    49    47    44    1
    50   197   196    1
    51   137   135    1
    52    99   102    1
    53    90    93    1
    54    90    89    1
    55   209   208    1
    56   209   210    2
    57    93    94    1
    58   208   207    1
    59   208   211    1
    60    79    80    1
    61    82    81    2
    62    89    81   am
    63    60    61    1
    64    60    63    1
    65    81    80    1
    66    44    45    1
    67    44    43    1
    68    69    70    2
    69    69    68    1
    70    62    61    2
    71   102   103    1
    72    61    67   am
    73    45    46    2
    74    80    83    1
    75    73    71    1
    76   135   134    1
    77   135   136    1
    78    94    95    1
    79    36    35    2
    80    67    68    1
    81   211   212    1
    82    63    64    1
    83   194   193    1
    84    96    95   ar
    85    66    64    1
    86   195   193    1
    87   134   131    1
    88   193   190    1
    89    68    71    1
    90    43    35   am
    91    35    34    1
    92    71    72    1
    93    95    97   ar
    94   103   104   ar
    95   103   105   ar
    96   192   191    2
    97    64    65    1
    98    83    84    1
    99   188   187    1
   100   212   213    1
   101   104   106   ar
   102   105   107   ar
   103   190   191    1
   104   190   189    1
   105   131   130    1
   106   131   132    1
   107    32    29    1
   108    34    33    1
   109    34    37    1
   110    84    86   ar
   111    84    85   ar
   112    40    42   ar
   113    40    38   ar
   114    33    30   am
   115   187   185   ar
   116   187   186   ar
   117    42    41   ar
   118    86    88   ar
   119   130   127   am
   120   213   214    1
   121   132   133    2
   122   185   183   ar
   123   186   184   ar
   124   106   107   ar
   125   189   179   am
   126    85    87   ar
   127    38    37    1
   128    38    39   ar
   129    30    29    1
   130    30    31    2
   131    29    28    1
   132    88    87   ar
   133    41    39   ar
   134   214   215    2
   135   127   126    1
   136   127   128    2
   137    23    22    2
   138   183   182   ar
   139   184   182   ar
   140   169   168    1
   141   126   129    1
   142   126   125    1
   143   179   180    2
   144   179   178    1
   145   108   109    1
   146   215   216    1
   147   215   217    1
   148   182   181    1
   149    28    22   am
   150   173   172    2
   151    22    21    1
   152   166   168   ar
   153   166   164   ar
   154   178   181    1
   155   178   177    1
   156   168   167   ar
   157   115   117   ar
   158   115   113   ar
   159   138   139    1
   160   109   110    1
   161   109   112    1
   162   117   116   ar
   163   110   111    2
   164   172   177   am
   165   172   171    1
   166   164   163   ar
   167    24    21    1
   168    24    25    1
   169    21    20    1
   170   113   112    1
   171   113   114   ar
   172   167   165   ar
   173   116   114   ar
   174   176   174    1
   175   139   142    1
   176   139   140    1
   177   174   171    1
   178   174   175    1
   179   141   140    2
   180   171   170    1
   181    18    17    1
   182   170   160   am
   183    26    25    1
   184    20    14   am
   185   163   165   ar
   186   163   162    1
   187    25    27    1
   188   140   143   am
   189   121   120    2
   190   153   152    2
   191   159   160    1
   192   159   162    1
   193   159   158    1
   194   160   161    2
   195    14    15    2
   196    14    13    1
   197   120   119    1
   198    17    19    1
   199    17    16    1
   200   143   149    1
   201   143   144    1
   202   152   158   am
   203   152   151    1
   204    13    16    1
   205    13    12    1
   206   118   119    1
   207   118   124    1
   208   149   148    1
   209   144   145    1
   210   144   147    1
   211   119   122    1
   212   150   145   am
   213   150   151    1
   214    11    10    2
   215   145   146    2
   216   124   123    1
   217   151   154    1
   218   157   155    1
   219   147   148    1
   220    12    10   am
   221    10     9    1
   222   122   123    1
   223   154   155    1
   224   154   156    1
   225     8     9    1
