@<TRIPOS>MOLECULE
tmp/1hp1A00.pdb
 94 86 0 0 0
SMALL
GASTEIGER

@<TRIPOS>ATOM
      1  N        -21.9240   68.6080   16.9310 N.3   341  ARG341     -0.1245
      2  CA       -21.0880   69.3810   16.0420 C.3   341  ARG341      0.1563
      3  C        -21.1580   70.8830   16.2290 C.2   341  ARG341      0.2260
      4  O        -20.1190   71.5480   16.3240 O.2   341  ARG341     -0.2867
      5  CB       -21.4520   69.0720   14.5990 C.3   341  ARG341      0.0307
      6  CG       -20.6170   69.8500   13.6090 C.3   341  ARG341      0.0489
      7  CD       -21.0640   69.5100   12.2140 C.3   341  ARG341      0.2205
      8  NE       -20.7220   68.1240   11.9580 N.pl3 341  ARG341     -0.0865
      9  CZ       -20.0740   67.7020   10.8850 C.cat 341  ARG341      0.5346
     10  NH1      -19.6990   68.5820    9.9550 N.pl3 341  ARG341      0.1354
     11  NH2      -19.8010   66.4010   10.7610 N.pl3 341  ARG341      0.1354
     12  N        -17.5780   72.4600   17.9620 N.3   345  ARG345     -0.1245
     13  CA       -16.7490   73.2120   17.0200 C.3   345  ARG345      0.1563
     14  C        -16.8380   74.7200   17.2790 C.2   345  ARG345      0.2260
     15  O        -16.2930   75.5280   16.5050 O.2   345  ARG345     -0.2867
     16  CB       -17.1610   72.9210   15.5820 C.3   345  ARG345      0.0307
     17  CG       -16.9490   71.4780   15.2140 C.3   345  ARG345      0.0489
     18  CD       -17.1840   71.2150   13.7450 C.3   345  ARG345      0.2205
     19  NE       -17.1530   69.7730   13.5430 N.pl3 345  ARG345     -0.0865
     20  CZ       -16.9740   69.1750   12.3750 C.cat 345  ARG345      0.5346
     21  NH1      -16.7990   69.8890   11.2640 N.pl3 345  ARG345      0.1354
     22  NH2      -16.9660   67.8550   12.3280 N.pl3 345  ARG345      0.1354
     23  N         -9.1470   68.0970   18.4620 N.3   371  SER371     -0.1217
     24  CA       -10.0020   68.8670   17.5520 C.3   371  SER371      0.1889
     25  C        -11.4500   68.6000   17.9110 C.2   371  SER371      0.2288
     26  O        -11.8180   67.4660   18.1720 O.2   371  SER371     -0.2866
     27  CB        -9.8130   68.3870   16.1080 C.3   371  SER371      0.2089
     28  OG        -8.5360   68.6960   15.6430 O.3   371  SER371     -0.2183
     29  N        -13.7350   68.5730   15.9290 N.3   373  GLY373     -0.1210
     30  CA       -14.2390   67.7560   14.8450 C.3   373  GLY373      0.1956
     31  C        -14.0460   66.2750   15.1180 C.2   373  GLY373      0.2612
     32  O        -14.5800   65.4270   14.4140 O.2   373  GLY373     -0.2717
     33  N        -13.2560   65.9760   16.1380 N.am  374  GLY374     -0.1956
     34  CA       -13.0170   64.5900   16.5240 C.3   374  GLY374      0.1869
     35  C        -14.1060   64.0240   17.4400 C.2   374  GLY374      0.2309
     36  O        -14.1290   62.8210   17.7230 O.2   374  GLY374     -0.2863
     37  N        -17.7920   63.0930   17.7790 N.3   376  ARG376     -0.1245
     38  CA       -18.8250   62.7630   16.8080 C.3   376  ARG376      0.1563
     39  C        -20.2260   62.4610   17.2730 C.2   376  ARG376      0.2260
     40  O        -21.0920   62.1230   16.4590 O.2   376  ARG376     -0.2867
     41  CB       -18.2990   61.6090   15.9490 C.3   376  ARG376      0.0307
     42  CG       -16.8230   61.8030   15.5500 C.3   376  ARG376      0.0489
     43  CD       -16.6410   63.0100   14.6400 C.3   376  ARG376      0.2205
     44  NE       -17.3080   62.7800   13.3590 N.pl3 376  ARG376     -0.0865
     45  CZ       -17.1350   63.5160   12.2630 C.cat 376  ARG376      0.5346
     46  NH1      -16.3160   64.5520   12.2650 N.pl3 376  ARG376      0.1354
     47  NH2      -17.7840   63.1970   11.1490 N.pl3 376  ARG376      0.1354
     48  N        -13.4040   56.9570   14.9140 N.3   395  PHE395     -0.1241
     49  CA       -12.3160   56.9110   13.9550 C.3   395  PHE395      0.1605
     50  C        -11.1120   56.0500   14.2270 C.2   395  PHE395      0.2264
     51  O        -10.2420   55.9320   13.3500 O.2   395  PHE395     -0.2867
     52  CB       -11.8700   58.3260   13.6710 C.3   395  PHE395      0.0534
     53  CG       -12.9410   59.1610   13.0220 C.ar  395  PHE395     -0.0203
     54  CD1      -13.6950   58.6340   11.9730 C.ar  395  PHE395     -0.0042
     55  CD2      -13.1620   60.4600   13.4270 C.ar  395  PHE395     -0.0042
     56  CE1      -14.6620   59.4060   11.3260 C.ar  395  PHE395     -0.0003
     57  CE2      -14.1330   61.2570   12.7810 C.ar  395  PHE395     -0.0003
     58  CZ       -14.8770   60.7300   11.7380 C.ar  395  PHE395     -0.0000
     59  N         -8.6850   56.6000   16.3580 N.3   397  ASN397     -0.1240
     60  CA        -7.4520   57.3250   16.6090 C.3   397  ASN397      0.1653
     61  C         -6.7810   56.7090   17.8230 C.2   397  ASN397      0.2266
     62  O         -7.4090   56.0510   18.6580 O.2   397  ASN397     -0.2867
     63  CB        -7.7210   58.8020   16.8930 C.3   397  ASN397      0.1155
     64  CG        -8.2060   59.5360   15.6820 C.2   397  ASN397      0.2627
     65  OD1       -8.8480   60.5850   15.8080 O.2   397  ASN397     -0.2716
     66  ND2       -7.8850   59.0280   14.5160 N.am  397  ASN397     -0.0877
     67  N        -13.8490   72.1550   12.0910 N.3   424  GLY424     -0.1210
     68  CA       -13.5000   70.9290   12.7920 C.3   424  GLY424      0.1956
     69  C        -12.2160   71.0950   13.5820 C.2   424  GLY424      0.2611
     70  O        -11.9790   70.3850   14.5510 O.2   424  GLY424     -0.2717
     71  N        -11.3770   72.0480   13.1800 N.am  425  ALA425     -0.1979
     72  CA       -10.1080   72.2740   13.8410 C.3   425  ALA425      0.1597
     73  C        -10.2080   73.0510   15.1580 C.2   425  ALA425      0.2287
     74  O         -9.2340   73.1550   15.8990 O.2   425  ALA425     -0.2864
     75  CB        -9.1580   72.9900   12.8700 C.3   425  ALA425      0.0319
     76  N         -3.9980   61.6010   15.2420 N.3   464  PHE464     -0.1241
     77  CA        -4.5170   62.4180   14.1460 C.3   464  PHE464      0.1605
     78  C         -4.0080   63.8530   14.2500 C.2   464  PHE464      0.2264
     79  O         -3.5210   64.4200   13.2710 O.2   464  PHE464     -0.2867
     80  CB        -6.0380   62.4310   14.1800 C.3   464  PHE464      0.0534
     81  CG        -6.6410   63.4200   13.2370 C.ar  464  PHE464     -0.0203
     82  CD1       -6.7490   63.1230   11.8940 C.ar  464  PHE464     -0.0042
     83  CD2       -7.0960   64.6560   13.7030 C.ar  464  PHE464     -0.0042
     84  CE1       -7.3070   64.0470   11.0010 C.ar  464  PHE464     -0.0003
     85  CE2       -7.6510   65.5910   12.8280 C.ar  464  PHE464     -0.0003
     86  CZ        -7.7570   65.2830   11.4740 C.ar  464  PHE464     -0.0000
     87  N         -5.8420   68.4690   10.8840 N.3   470  ASP470     -0.1239
     88  CA        -6.4870   69.7630   11.0630 C.3   470  ASP470      0.1674
     89  C         -5.5070   70.9130   11.1600 C.2   470  ASP470      0.2266
     90  O         -5.8130   71.9620   11.7260 O.2   470  ASP470     -0.2867
     91  CB        -7.4090   69.7720   12.2930 C.3   470  ASP470      0.1410
     92  CG        -8.7310   69.1220   12.0090 C.2   470  ASP470      0.3668
     93  OD1       -9.1590   69.1180   10.8330 O.co2 470  ASP470     -0.2456
     94  OD2       -9.3480   68.6230   12.9550 O.co2 470  ASP470     -0.2456
@<TRIPOS>BOND
     1    10     9    1
     2    11     9    1
     3    93    92   ar
     4    87    88    1
     5     9     8    2
     6    84    86   ar
     7    84    82   ar
     8    88    89    1
     9    88    91    1
    10    47    45    1
    11    89    90    2
    12    21    20    1
    13    56    58   ar
    14    56    54   ar
    15    86    85   ar
    16    58    57   ar
    17    82    81   ar
    18     8     7    1
    19    54    53   ar
    20    92    91    1
    21    92    94   ar
    22    67    68    1
    23     7     6    1
    24    45    46    1
    25    45    44    2
    26    22    20    1
    27    20    19    2
    28    57    55   ar
    29    68    69    1
    30    85    83   ar
    31    75    72    1
    32    53    55   ar
    33    53    52    1
    34    71    69   am
    35    71    72    1
    36    81    83   ar
    37    81    80    1
    38    79    78    2
    39    51    50    2
    40    44    43    1
    41    19    18    1
    42    69    70    2
    43     6     5    1
    44    52    49    1
    45    18    17    1
    46    72    73    1
    47    49    50    1
    48    49    48    1
    49    77    80    1
    50    77    78    1
    51    77    76    1
    52    32    31    2
    53    66    64   am
    54     5     2    1
    55    43    42    1
    56    30    31    1
    57    30    29    1
    58    31    33   am
    59    73    74    2
    60    17    16    1
    61    42    41    1
    62    16    13    1
    63    28    27    1
    64    64    65    2
    65    64    63    1
    66    41    38    1
    67     2     3    1
    68     2     1    1
    69    27    24    1
    70    33    34    1
    71     3     4    2
    72    59    60    1
    73    40    39    2
    74    15    14    2
    75    34    35    1
    76    60    63    1
    77    60    61    1
    78    38    39    1
    79    38    37    1
    80    13    14    1
    81    13    12    1
    82    35    36    2
    83    24    25    1
    84    24    23    1
    85    61    62    2
    86    25    26    2
