@<TRIPOS>MOLECULE
tmp/1hp5A00.pdb
 146 143 0 0 0
SMALL
GASTEIGER

@<TRIPOS>ATOM
      1  N         -1.4590   72.8860    1.8140 N.3   155  ARG155     -0.1245
      2  CA        -1.0010   73.7420    2.9120 C.3   155  ARG155      0.1563
      3  C          0.1900   74.5600    2.4310 C.2   155  ARG155      0.2260
      4  O          0.2290   75.7780    2.6010 O.2   155  ARG155     -0.2867
      5  CB        -0.6520   72.8860    4.1290 C.3   155  ARG155      0.0307
      6  CG        -1.8830   72.5220    4.9650 C.3   155  ARG155      0.0489
      7  CD        -3.1350   72.2590    4.1090 C.3   155  ARG155      0.2205
      8  NE        -4.2970   72.0360    4.9660 N.pl3 155  ARG155     -0.0865
      9  CZ        -4.5290   70.9070    5.6290 C.cat 155  ARG155      0.5346
     10  NH1       -3.6890   69.8860    5.5220 N.pl3 155  ARG155      0.1354
     11  NH2       -5.5770   70.8130    6.4330 N.pl3 155  ARG155      0.1354
     12  N         -7.5400   72.1470   -0.2180 N.3   184  ASP184     -0.1239
     13  CA        -7.8690   72.2470    1.1850 C.3   184  ASP184      0.1674
     14  C         -8.2940   73.6810    1.4660 C.2   184  ASP184      0.2266
     15  O         -8.6780   74.4060    0.5490 O.2   184  ASP184     -0.2867
     16  CB        -6.6690   71.8360    2.0430 C.3   184  ASP184      0.1410
     17  CG        -7.0920   71.2500    3.3760 C.2   184  ASP184      0.3668
     18  OD1       -7.4630   72.0330    4.2750 O.co2 184  ASP184     -0.2456
     19  OD2       -7.0760   70.0070    3.5170 O.co2 184  ASP184     -0.2456
     20  N        -12.8740   71.1330    4.4810 N.3   243  HIS243     -0.1241
     21  CA       -11.5600   71.5190    3.9550 C.3   243  HIS243      0.1621
     22  C        -11.7120   72.0880    2.5440 C.2   243  HIS243      0.2264
     23  O        -10.9000   71.8140    1.6520 O.2   243  HIS243     -0.2867
     24  CB       -10.6310   70.3010    3.9270 C.3   243  HIS243      0.0745
     25  CG       -10.0940   69.9250    5.2720 C.ar  243  HIS243      0.0817
     26  ND1       -9.0210   70.5680    5.8480 N.ar  243  HIS243     -0.2268
     27  CD2      -10.5030   68.9960    6.1700 C.ar  243  HIS243      0.1154
     28  CE1       -8.7900   70.0530    7.0430 C.ar  243  HIS243      0.1986
     29  NE2       -9.6760   69.0980    7.2640 N.ar  243  HIS243     -0.2212
     30  N         -8.3490   73.6360   11.3360 N.3   269  VAL269     -0.1245
     31  CA        -9.2580   72.9070   10.4470 C.3   269  VAL269      0.1561
     32  C        -10.6980   72.8890   10.9640 C.2   269  VAL269      0.2260
     33  O        -10.9660   73.3290   12.0770 O.2   269  VAL269     -0.2867
     34  CB        -8.8190   71.4280   10.3180 C.3   269  VAL269      0.0252
     35  CG1       -7.3270   71.3370   10.0360 C.3   269  VAL269      0.0019
     36  CG2       -9.1530   70.6740   11.6140 C.3   269  VAL269      0.0019
     37  N        -13.0800   64.3120    5.4860 N.3   306  ASP306     -0.1225
     38  CA       -12.6060   64.4560    6.8520 C.3   306  ASP306      0.1805
     39  C        -12.9420   65.8110    7.4500 C.2   306  ASP306      0.2597
     40  O        -13.0450   66.8150    6.7430 O.2   306  ASP306     -0.2718
     41  CB       -11.0840   64.2830    6.8990 C.3   306  ASP306      0.1424
     42  CG       -10.3550   65.3510    6.0910 C.2   306  ASP306      0.3668
     43  OD1      -10.6950   65.5160    4.9010 O.co2 306  ASP306     -0.2456
     44  OD2       -9.4510   66.0270    6.6380 O.co2 306  ASP306     -0.2456
     45  N        -13.1230   65.8170    8.7640 N.am  307  GLU307     -0.1979
     46  CA       -13.3740   67.0380    9.5180 C.3   307  GLU307      0.1602
     47  C        -14.3510   68.0390    8.9210 C.2   307  GLU307      0.2287
     48  O        -14.0590   69.2350    8.8610 O.2   307  GLU307     -0.2864
     49  CB       -12.0340   67.7290    9.7820 C.3   307  GLU307      0.0415
     50  CG       -10.9570   66.7490   10.2310 C.3   307  GLU307      0.1163
     51  CD        -9.6150   67.4060   10.4790 C.2   307  GLU307      0.3649
     52  OE1       -9.1180   68.1350    9.5880 O.co2 307  GLU307     -0.2457
     53  OE2       -9.0500   67.1830   11.5670 O.co2 307  GLU307     -0.2457
     54  N        -11.8330   59.5070    3.4730 N.3   337  TRP337     -0.1241
     55  CA       -11.2690   59.3150    4.8000 C.3   337  TRP337      0.1605
     56  C        -12.3320   58.5040    5.5300 C.2   337  TRP337      0.2264
     57  O        -13.4750   58.4530    5.0730 O.2   337  TRP337     -0.2867
     58  CB       -11.0040   60.6650    5.4640 C.3   337  TRP337      0.0550
     59  CG        -9.9310   61.4290    4.7380 C.ar  337  TRP337      0.0003
     60  CD1      -10.1000   62.5030    3.9110 C.ar  337  TRP337      0.0946
     61  CD2       -8.5250   61.1560    4.7580 C.ar  337  TRP337      0.0152
     62  NE1       -8.8850   62.9190    3.4190 N.ar  337  TRP337     -0.2442
     63  CE2       -7.9000   62.1110    3.9210 C.ar  337  TRP337      0.0810
     64  CE3       -7.7300   60.2010    5.4060 C.ar  337  TRP337      0.0012
     65  CZ2       -6.5160   62.1380    3.7130 C.ar  337  TRP337      0.0191
     66  CZ3       -6.3490   60.2290    5.2010 C.ar  337  TRP337      0.0001
     67  CH2       -5.7590   61.1910    4.3610 C.ar  337  TRP337      0.0015
     68  N         -7.7130   57.2170    9.6430 N.3   354  TRP354     -0.1241
     69  CA        -6.6480   58.0610   10.1690 C.3   354  TRP354      0.1605
     70  C         -6.7570   58.2850   11.6710 C.2   354  TRP354      0.2264
     71  O         -6.2240   59.2630   12.2030 O.2   354  TRP354     -0.2867
     72  CB        -6.6190   59.4150    9.4480 C.3   354  TRP354      0.0550
     73  CG        -7.8980   60.1920    9.5010 C.ar  354  TRP354      0.0003
     74  CD1       -9.0360   59.9460    8.7900 C.ar  354  TRP354      0.0946
     75  CD2       -8.1630   61.3610   10.2900 C.ar  354  TRP354      0.0152
     76  NE1       -9.9900   60.8860    9.0810 N.ar  354  TRP354     -0.2442
     77  CE2       -9.4830   61.7670   10.0000 C.ar  354  TRP354      0.0810
     78  CE3       -7.4130   62.1030   11.2130 C.ar  354  TRP354      0.0012
     79  CZ2      -10.0740   62.8880   10.6020 C.ar  354  TRP354      0.0191
     80  CZ3       -7.9990   63.2170   11.8110 C.ar  354  TRP354      0.0001
     81  CH2       -9.3170   63.5980   11.5020 C.ar  354  TRP354      0.0015
     82  N          1.7220   59.0080   10.1030 N.3   386  TYR386     -0.1241
     83  CA         1.7060   60.4150    9.7190 C.3   386  TYR386      0.1605
     84  C          3.1350   60.9430    9.7970 C.2   386  TYR386      0.2264
     85  O          3.7000   61.0750   10.8830 O.2   386  TYR386     -0.2867
     86  CB         0.7860   61.2070   10.6580 C.3   386  TYR386      0.0534
     87  CG        -0.6570   61.2460   10.1920 C.ar  386  TYR386     -0.0201
     88  CD1       -1.2350   60.1390    9.5710 C.ar  386  TYR386     -0.0009
     89  CD2       -1.4280   62.4010   10.3340 C.ar  386  TYR386     -0.0009
     90  CE1       -2.5340   60.1780    9.0900 C.ar  386  TYR386      0.0417
     91  CE2       -2.7370   62.4530    9.8570 C.ar  386  TYR386      0.0417
     92  CZ        -3.2800   61.3350    9.2290 C.ar  386  TYR386      0.1957
     93  OH        -4.5470   61.3770    8.6920 O.3   386  TYR386     -0.2866
     94  N          4.1210   63.8530    9.2600 N.3   388  ASP388     -0.1239
     95  CA         4.1840   65.2150    9.7680 C.3   388  ASP388      0.1674
     96  C          4.1670   65.2350   11.2900 C.2   388  ASP388      0.2266
     97  O          4.3510   66.2840   11.8920 O.2   388  ASP388     -0.2867
     98  CB         3.0200   66.0550    9.2290 C.3   388  ASP388      0.1410
     99  CG         1.6690   65.5560    9.7030 C.2   388  ASP388      0.3668
    100  OD1        1.4140   64.3410    9.5830 O.co2 388  ASP388     -0.2456
    101  OD2        0.8570   66.3800   10.1830 O.co2 388  ASP388     -0.2456
    102  N          3.6100   68.3080   13.6950 N.3   399  LEU399     -0.1245
    103  CA         2.5470   68.5160   14.6650 C.3   399  LEU399      0.1561
    104  C          2.6490   67.4840   15.7710 C.2   399  LEU399      0.2260
    105  O          3.4940   66.5860   15.7190 O.2   399  LEU399     -0.2867
    106  CB         1.1830   68.4190   13.9750 C.3   399  LEU399      0.0270
    107  CG         0.9670   69.4410   12.8540 C.3   399  LEU399      0.0019
    108  CD1       -0.4280   69.2650   12.2470 C.3   399  LEU399      0.0001
    109  CD2        1.1390   70.8490   13.4120 C.3   399  LEU399      0.0001
    110  N         -0.6010   66.7070   17.6790 N.3   401  TRP401     -0.1241
    111  CA        -1.9550   66.4670   18.1410 C.3   401  TRP401      0.1605
    112  C         -2.2050   64.9820   18.3600 C.2   401  TRP401      0.2264
    113  O         -3.0200   64.6070   19.1980 O.2   401  TRP401     -0.2867
    114  CB        -2.9820   67.0340   17.1530 C.3   401  TRP401      0.0550
    115  CG        -2.9930   66.3800   15.8020 C.ar  401  TRP401      0.0003
    116  CD1       -2.2830   66.7590   14.6950 C.ar  401  TRP401      0.0946
    117  CD2       -3.7720   65.2440   15.4090 C.ar  401  TRP401      0.0152
    118  NE1       -2.5790   65.9310   13.6370 N.ar  401  TRP401     -0.2442
    119  CE2       -3.4890   64.9930   14.0470 C.ar  401  TRP401      0.0810
    120  CE3       -4.6850   64.4150   16.0760 C.ar  401  TRP401      0.0012
    121  CZ2       -4.0890   63.9450   13.3350 C.ar  401  TRP401      0.0191
    122  CZ3       -5.2820   63.3740   15.3690 C.ar  401  TRP401      0.0001
    123  CH2       -4.9800   63.1490   14.0120 C.ar  401  TRP401      0.0015
    124  N          1.4980   65.6640    5.7210 N.3   435  TRP435     -0.1241
    125  CA         0.7740   66.9340    5.6980 C.3   435  TRP435      0.1605
    126  C          1.7950   68.0570    5.7930 C.2   435  TRP435      0.2264
    127  O          2.8280   67.9060    6.4410 O.2   435  TRP435     -0.2867
    128  CB        -0.2240   67.0090    6.8570 C.3   435  TRP435      0.0550
    129  CG        -1.2010   65.8790    6.8330 C.ar  435  TRP435      0.0003
    130  CD1       -1.1140   64.7030    7.5190 C.ar  435  TRP435      0.0946
    131  CD2       -2.3790   65.7910    6.0290 C.ar  435  TRP435      0.0152
    132  NE1       -2.1680   63.8840    7.1900 N.ar  435  TRP435     -0.2442
    133  CE2       -2.9610   64.5280    6.2770 C.ar  435  TRP435      0.0810
    134  CE3       -3.0030   66.6590    5.1180 C.ar  435  TRP435      0.0012
    135  CZ2       -4.1430   64.1060    5.6470 C.ar  435  TRP435      0.0191
    136  CZ3       -4.1780   66.2430    4.4900 C.ar  435  TRP435      0.0001
    137  CH2       -4.7340   64.9740    4.7620 C.ar  435  TRP435      0.0015
    138  N          1.3840   71.5730    6.9100 N.3   437  GLU437     -0.1245
    139  CA         1.1010   72.8140    7.6280 C.3   437  GLU437      0.1567
    140  C          2.4080   73.4880    8.0300 C.2   437  GLU437      0.2260
    141  O          2.5200   74.7100    7.9760 O.2   437  GLU437     -0.2867
    142  CB         0.2930   72.5600    8.9150 C.3   437  GLU437      0.0388
    143  CG        -1.2070   72.4400    8.7150 C.3   437  GLU437      0.1160
    144  CD        -1.6670   71.0090    8.5290 C.2   437  GLU437      0.3649
    145  OE1       -0.8550   70.1710    8.0750 O.co2 437  GLU437     -0.2457
    146  OE2       -2.8470   70.7310    8.8300 O.co2 437  GLU437     -0.2457
@<TRIPOS>BOND
     1    12    13    1
     2    15    14    2
     3    13    14    1
     4    13    16    1
     5    23    22    2
     6     1     2    1
     7    16    17    1
     8     3     4    2
     9     3     2    1
    10    22    21    1
    11     2     5    1
    12    17    19   ar
    13    17    18   ar
    14    62    60   ar
    15    62    63   ar
    16    54    55    1
    17    65    63   ar
    18    65    67   ar
    19    60    59   ar
    20    63    61   ar
    21    24    21    1
    22    24    25    1
    23    21    20    1
    24     7     6    1
    25     7     8    1
    26     5     6    1
    27    67    66   ar
    28   136   137   ar
    29   136   134   ar
    30    59    61   ar
    31    59    58    1
    32    61    64   ar
    33   137   135   ar
    34    55    58    1
    35    55    56    1
    36    43    42   ar
    37     8     9    2
    38    57    56    2
    39   134   131   ar
    40    66    64   ar
    41    25    26   ar
    42    25    27   ar
    43    37    38    1
    44    10     9    1
    45     9    11    1
    46   135   133   ar
    47   125   124    1
    48   125   126    1
    49   125   128    1
    50   126   127    2
    51    26    28   ar
    52   131   133   ar
    53   131   129   ar
    54    42    44   ar
    55    42    41    1
    56    27    29   ar
    57   133   132   ar
    58    40    39    2
    59   129   128    1
    60   129   130   ar
    61    38    41    1
    62    38    39    1
    63   138   139    1
    64    28    29   ar
    65   132   130   ar
    66    39    45   am
    67   139   140    1
    68   139   142    1
    69   141   140    2
    70   145   144   ar
    71   144   143    1
    72   144   146   ar
    73    93    92    1
    74   143   142    1
    75    45    46    1
    76    74    76   ar
    77    74    73   ar
    78    48    47    2
    79    47    46    1
    80    76    77   ar
    81    90    92   ar
    82    90    88   ar
    83    92    91   ar
    84    98    99    1
    85    98    95    1
    86    94    95    1
    87    72    73    1
    88    72    69    1
    89    73    75   ar
    90    46    49    1
    91    88    87   ar
    92   100    99   ar
    93    52    51   ar
    94    68    69    1
    95    99   101   ar
    96    83    84    1
    97    83    82    1
    98    83    86    1
    99    95    96    1
   100    49    50    1
   101    84    85    2
   102    91    89   ar
   103    77    75   ar
   104    77    79   ar
   105    35    34    1
   106    69    70    1
   107    87    89   ar
   108    87    86    1
   109    50    51    1
   110    75    78   ar
   111    34    31    1
   112    34    36    1
   113    31    32    1
   114    31    30    1
   115    51    53   ar
   116    79    81   ar
   117    32    33    2
   118    78    80   ar
   119    96    97    2
   120    81    80   ar
   121    70    71    2
   122   108   107    1
   123   107   109    1
   124   107   106    1
   125   121   123   ar
   126   121   119   ar
   127   118   119   ar
   128   118   116   ar
   129   102   103    1
   130   106   103    1
   131   123   122   ar
   132   119   117   ar
   133   103   104    1
   134   116   115   ar
   135   122   120   ar
   136   117   115   ar
   137   117   120   ar
   138   105   104    2
   139   115   114    1
   140   114   111    1
   141   110   111    1
   142   111   112    1
   143   112   113    2
