@<TRIPOS>MOLECULE
tmp/1hpgA00.pdb
 152 148 0 0 0
SMALL
GASTEIGER

@<TRIPOS>ATOM
      1  N         16.5170    1.6970    4.6110 N.3    14  CYS14      -0.1235
      2  CA        17.7920    1.5980    5.3090 C.3    14  CYS14       0.1677
      3  C         17.7040    0.4050    6.2560 C.2    14  CYS14       0.2270
      4  O         16.7750   -0.4050    6.1780 O.2    14  CYS14      -0.2867
      5  CB        18.0680    2.8920    6.0770 C.3    14  CYS14       0.0956
      6  SG        18.7010    4.2230    5.0220 S.3    14  CYS14      -0.0801
      7  N         23.1100    9.4460    7.4850 N.3    33  HIS33      -0.1226
      8  CA        22.6830    9.7910    6.1180 C.3    33  HIS33       0.1752
      9  C         21.2830    9.1890    5.8880 C.2    33  HIS33       0.2596
     10  O         20.6380    9.6000    4.9410 O.2    33  HIS33      -0.2718
     11  CB        23.6910    9.2650    5.0180 C.3    33  HIS33       0.0759
     12  CG        23.9340    7.7700    4.8150 C.ar   33  HIS33       0.0818
     13  ND1       24.8840    6.9840    5.3310 N.ar   33  HIS33      -0.2268
     14  CD2       23.2020    6.9820    3.9570 C.ar   33  HIS33       0.1154
     15  CE1       24.7670    5.7830    4.8230 C.ar   33  HIS33       0.1986
     16  NE2       23.7560    5.8020    4.0080 N.ar   33  HIS33      -0.2212
     17  N         20.8340    8.1990    6.6900 N.am   34  CYS34      -0.1970
     18  CA        19.4720    7.7230    6.6230 C.3    34  CYS34       0.1712
     19  C         18.5700    8.6770    7.4210 C.2    34  CYS34       0.2296
     20  O         17.6220    9.2030    6.8300 O.2    34  CYS34      -0.2864
     21  CB        19.3880    6.3140    7.1840 C.3    34  CYS34       0.0983
     22  SG        20.1840    5.1120    6.0890 S.3    34  CYS34      -0.0798
     23  N         25.2670   13.7290    9.8780 N.3    58  PHE58      -0.1241
     24  CA        25.9270   13.2880    8.6490 C.3    58  PHE58       0.1605
     25  C         26.0550   14.5120    7.7300 C.2    58  PHE58       0.2264
     26  O         25.0470   15.2290    7.5990 O.2    58  PHE58      -0.2867
     27  CB        25.1130   12.2010    7.9250 C.3    58  PHE58       0.0534
     28  CG        25.7160   11.8360    6.5650 C.ar   58  PHE58      -0.0203
     29  CD1       26.7700   10.9320    6.5130 C.ar   58  PHE58      -0.0042
     30  CD2       25.3190   12.4470    5.3860 C.ar   58  PHE58      -0.0042
     31  CE1       27.4020   10.6420    5.3150 C.ar   58  PHE58      -0.0003
     32  CE2       25.9590   12.1520    4.1880 C.ar   58  PHE58      -0.0003
     33  CZ        27.0100   11.2530    4.1380 C.ar   58  PHE58      -0.0000
     34  N         37.0330    9.2200    5.7150 N.3   121  VAL121     -0.1231
     35  CA        36.3660    8.7550    4.5060 C.3   121  VAL121      0.1692
     36  C         35.7230    9.9600    3.8120 C.2   121  VAL121      0.2592
     37  O         34.9520   10.7360    4.3810 O.2   121  VAL121     -0.2718
     38  CB        35.2990    7.6950    4.8990 C.3   121  VAL121      0.0266
     39  CG1       34.5220    7.2030    3.6870 C.3   121  VAL121      0.0020
     40  CG2       36.0070    6.4890    5.5060 C.3   121  VAL121      0.0020
     41  N         36.0120   10.1540    2.5220 N.am  122  ASN122     -0.1960
     42  CA        35.4510   11.2840    1.7860 C.3   122  ASN122      0.1819
     43  C         34.2770   10.7760    0.9950 C.2   122  ASN122      0.2621
     44  O         34.4140    9.8830    0.1510 O.2   122  ASN122     -0.2715
     45  CB        36.4600   11.8710    0.8280 C.3   122  ASN122      0.1195
     46  CG        37.6390   12.4350    1.5900 C.2   122  ASN122      0.2630
     47  OD1       38.5640   11.7170    1.9600 O.2   122  ASN122     -0.2716
     48  ND2       37.6620   13.7200    1.8980 N.am  122  ASN122     -0.0877
     49  N         33.0870   11.1820    1.3630 N.am  123  TYR123     -0.1960
     50  CA        31.9650   10.8210    0.5240 C.3   123  TYR123      0.1771
     51  C         31.7120   12.0240   -0.3700 C.2   123  TYR123      0.2620
     52  O         32.3180   13.0790   -0.1640 O.2   123  TYR123     -0.2715
     53  CB        30.7530   10.5390    1.3810 C.3   123  TYR123      0.0574
     54  CG        30.7870    9.2220    2.1180 C.ar  123  TYR123     -0.0198
     55  CD1       31.1840    8.0530    1.4960 C.ar  123  TYR123     -0.0009
     56  CD2       30.3650    9.2150    3.4360 C.ar  123  TYR123     -0.0009
     57  CE1       31.1130    6.8480    2.1970 C.ar  123  TYR123      0.0417
     58  CE2       30.2920    8.0290    4.1270 C.ar  123  TYR123      0.0417
     59  CZ        30.6800    6.8610    3.5070 C.ar  123  TYR123      0.1957
     60  OH        30.5830    5.6690    4.1890 O.3   123  TYR123     -0.2866
     61  N         30.7770   11.9280   -1.3250 N.am  124  GLY124     -0.1940
     62  CA        30.4290   13.0530   -2.1940 C.3   124  GLY124      0.2014
     63  C         29.8850   14.1800   -1.3400 C.2   124  GLY124      0.2638
     64  O         30.2180   15.3220   -1.5930 O.2   124  GLY124     -0.2714
     65  N         29.1130   13.8920   -0.2800 N.am  125  ASP125     -0.1971
     66  CA        28.5750   14.9250    0.5960 C.3   125  ASP125      0.1709
     67  C         29.5910   15.5830    1.5110 C.2   125  ASP125      0.2293
     68  O         29.3330   16.6360    2.1150 O.2   125  ASP125     -0.2864
     69  CB        27.4480   14.3540    1.4440 C.3   125  ASP125      0.1436
     70  CG        26.0620   14.5480    0.8240 C.2   125  ASP125      0.3671
     71  OD1       25.9710   14.8940   -0.3580 O.co2 125  ASP125     -0.2456
     72  OD2       25.0650   14.3540    1.5310 O.co2 125  ASP125     -0.2456
     73  N         37.5000    0.6290    8.8290 N.3   133  ARG133     -0.1245
     74  CA        37.4220   -0.0940    7.5570 C.3   133  ARG133      0.1563
     75  C         37.4330   -1.5820    7.8090 C.2   133  ARG133      0.2260
     76  O         38.1730   -2.0520    8.6940 O.2   133  ARG133     -0.2867
     77  CB        38.5990    0.1310    6.6980 C.3   133  ARG133      0.0307
     78  CG        38.6430    1.5550    6.1950 C.3   133  ARG133      0.0489
     79  CD        39.6820    1.6960    5.0590 C.3   133  ARG133      0.2205
     80  NE        39.8230    3.0550    4.5520 N.pl3 133  ARG133     -0.0865
     81  CZ        39.0390    3.5560    3.5750 C.cat 133  ARG133      0.5346
     82  NH1       38.0640    2.8350    2.9840 N.pl3 133  ARG133      0.1354
     83  NH2       39.2520    4.8040    3.1350 N.pl3 133  ARG133      0.1354
     84  N         29.0690   -5.6510    1.4780 N.3   138  SER138     -0.1202
     85  CA        27.8610   -4.9020    1.7710 C.3   138  SER138      0.2020
     86  C         27.2980   -4.3030    0.4810 C.2   138  SER138      0.2619
     87  O         27.9810   -4.3390   -0.5560 O.2   138  SER138     -0.2717
     88  CB        28.2080   -3.7980    2.7750 C.3   138  SER138      0.2103
     89  OG        29.2150   -2.8550    2.3810 O.3   138  SER138     -0.2182
     90  N         26.1420   -3.6570    0.5280 N.am  139  ALA139     -0.1965
     91  CA        25.5000   -3.0650   -0.6420 C.3   139  ALA139      0.1728
     92  C         24.4650   -2.0520   -0.1790 C.2   139  ALA139      0.2617
     93  O         24.1390   -2.0260    1.0140 O.2   139  ALA139     -0.2715
     94  CB        24.8020   -4.1490   -1.4550 C.3   139  ALA139      0.0334
     95  N         23.9690   -1.2000   -1.0880 N.am  140  GLY140     -0.1940
     96  CA        23.0000   -0.1710   -0.7420 C.3   140  GLY140      0.2014
     97  C         21.7900   -0.7530   -0.0280 C.2   140  GLY140      0.2639
     98  O         21.3010   -1.8150   -0.4160 O.2   140  GLY140     -0.2714
     99  N         21.2950   -0.0450    0.9780 N.am  141  GLY141     -0.1954
    100  CA        20.1760   -0.4860    1.8040 C.3   141  GLY141      0.1869
    101  C         20.7240   -1.0970    3.0780 C.2   141  GLY141      0.2309
    102  O         20.0040   -1.2840    4.0540 O.2   141  GLY141     -0.2863
    103  N         23.1060    0.3790    4.9930 N.3   143  SER143     -0.1217
    104  CA        23.4120    1.4170    5.9610 C.3   143  SER143      0.1889
    105  C         22.3440    1.5720    7.0140 C.2   143  SER143      0.2288
    106  O         21.1360    1.3650    6.8200 O.2   143  SER143     -0.2866
    107  CB        23.6270    2.7530    5.3150 C.3   143  SER143      0.2089
    108  OG        24.9520    2.7190    4.7580 O.3   143  SER143     -0.2183
    109  N         26.7680    0.6010   10.1540 N.3   157  HIS157     -0.1226
    110  CA        27.2470    0.5520    8.7740 C.3   157  HIS157      0.1752
    111  C         27.0370    1.8760    8.0460 C.2   157  HIS157      0.2597
    112  O         25.9030    2.3710    7.9220 O.2   157  HIS157     -0.2718
    113  CB        26.5420   -0.5980    8.0670 C.3   157  HIS157      0.0759
    114  CG        27.1910   -0.8500    6.6790 C.ar  157  HIS157      0.0818
    115  ND1       28.3850   -1.3350    6.2470 N.ar  157  HIS157     -0.2268
    116  CD2       26.5240   -0.4300    5.5400 C.ar  157  HIS157      0.1154
    117  CE1       28.4230   -1.1900    4.9360 C.ar  157  HIS157      0.1986
    118  NE2       27.3090   -0.6560    4.5310 N.ar  157  HIS157     -0.2212
    119  N         28.1150    2.3980    7.4350 N.am  158  SER158     -0.1938
    120  CA        28.0620    3.6640    6.7510 C.3   158  SER158      0.2055
    121  C         28.1170    3.5200    5.2440 C.2   158  SER158      0.2644
    122  O         27.2670    4.0980    4.5520 O.2   158  SER158     -0.2714
    123  CB        29.2020    4.5140    7.2320 C.3   158  SER158      0.2130
    124  OG        29.2980    5.7820    6.6060 O.3   158  SER158     -0.2179
    125  N         29.0680    2.7630    4.6960 N.am  159  GLY159     -0.1939
    126  CA        29.1280    2.6570    3.2440 C.3   159  GLY159      0.2014
    127  C         30.2610    1.7100    2.8580 C.2   159  GLY159      0.2640
    128  O         30.6530    0.8870    3.6970 O.2   159  GLY159     -0.2714
    129  N         30.7150    1.6990    1.6080 N.am  160  SER160     -0.1935
    130  CA        31.8470    0.8610    1.2200 C.3   160  SER160      0.2055
    131  C         32.2500    1.3430   -0.1650 C.2   160  SER160      0.2644
    132  O         31.5930    2.2470   -0.7080 O.2   160  SER160     -0.2714
    133  CB        31.4340   -0.6110    1.1740 C.3   160  SER160      0.2130
    134  OG        30.8340   -1.1230   -0.0230 O.3   160  SER160     -0.2179
    135  N         33.2720    0.7110   -0.7410 N.am  161  SER161     -0.1935
    136  CA        33.7470    0.9910   -2.0920 C.3   161  SER161      0.2055
    137  C         33.5340   -0.2520   -2.9600 C.2   161  SER161      0.2643
    138  O         34.2270   -0.4970   -3.9410 O.2   161  SER161     -0.2714
    139  CB        35.2010    1.3370   -2.0130 C.3   161  SER161      0.2130
    140  OG        35.7910    0.3770   -1.1490 O.3   161  SER161     -0.2179
    141  N         32.6800   -1.1870   -2.5990 N.am  162  GLY162     -0.1954
    142  CA        32.3790   -2.3180   -3.4640 C.3   162  GLY162      0.1869
    143  C         32.7820   -3.6580   -2.8940 C.2   162  GLY162      0.2309
    144  O         33.4850   -3.7130   -1.8760 O.2   162  GLY162     -0.2863
    145  N         32.5540   -0.0390    5.6730 N.3   171  ILE171     -0.1245
    146  CA        32.9870    1.0010    6.5890 C.3   171  ILE171      0.1561
    147  C         31.9310    1.1990    7.6710 C.2   171  ILE171      0.2260
    148  O         30.7290    1.1640    7.3750 O.2   171  ILE171     -0.2867
    149  CB        33.2020    2.3120    5.8090 C.3   171  ILE171      0.0252
    150  CG1       34.2510    2.1150    4.7250 C.3   171  ILE171      0.0019
    151  CG2       33.6080    3.4170    6.7780 C.3   171  ILE171      0.0019
    152  CD1       34.3800    3.3190    3.7730 C.3   171  ILE171      0.0001
@<TRIPOS>BOND
     1   138   137    2
     2   142   143    1
     3   142   141    1
     4   137   141   am
     5   137   136    1
     6   143   144    2
     7    62    63    1
     8    62    61    1
     9   136   139    1
    10   136   135    1
    11   139   140    1
    12    64    63    2
    13    94    91    1
    14    63    65   am
    15    61    51   am
    16    95    96    1
    17    95    92   am
    18    96    97    1
    19   135   131   am
    20   132   131    2
    21    91    92    1
    22    91    90    1
    23    87    86    2
    24    98    97    2
    25    51    52    2
    26    51    50    1
    27    71    70   ar
    28    65    66    1
    29    92    93    2
    30   131   130    1
    31    97    99   am
    32   134   133    1
    33    44    43    2
    34    86    90   am
    35    86    85    1
    36    50    49    1
    37    50    53    1
    38    66    69    1
    39    66    67    1
    40    70    69    1
    41    70    72   ar
    42    45    46    1
    43    45    42    1
    44    99   100    1
    45    43    49   am
    46    43    42    1
    47   133   130    1
    48   130   129    1
    49    53    54    1
    50    84    85    1
    51    55    54   ar
    52    55    57   ar
    53    67    68    2
    54    46    48   am
    55    46    47    2
    56   129   127   am
    57    85    88    1
    58    42    41    1
    59   100   101    1
    60    54    56   ar
    61    57    59   ar
    62    89    88    1
    63    41    36   am
    64   127   126    1
    65   127   128    2
    66    82    81    1
    67   101   102    2
    68    83    81    1
    69   126   125    1
    70    56    58   ar
    71    59    58   ar
    72    59    60    1
    73    81    80    2
    74    39    38    1
    75   152   150    1
    76    36    37    2
    77    36    35    1
    78    14    16   ar
    79    14    12   ar
    80    16    15   ar
    81    33    32   ar
    82    33    31   ar
    83    32    30   ar
    84    35    38    1
    85    35    34    1
    86   118   117   ar
    87   118   116   ar
    88    80    79    1
    89   122   121    2
    90     1     2    1
    91   125   121   am
    92   150   149    1
    93   108   107    1
    94    12    11    1
    95    12    13   ar
    96    15    13   ar
    97    38    40    1
    98   117   115   ar
    99    10     9    2
   100   103   104    1
   101    11     8    1
   102     6     5    1
   103     6    22    1
   104    79    78    1
   105   121   120    1
   106     2     5    1
   107     2     3    1
   108    31    29   ar
   109   107   104    1
   110    30    28   ar
   111   116   114   ar
   112   145   146    1
   113   149   146    1
   114   149   151    1
   115     9     8    1
   116     9    17   am
   117   104   105    1
   118    22    21    1
   119     8     7    1
   120     4     3    2
   121    78    77    1
   122   115   114   ar
   123    29    28   ar
   124    28    27    1
   125   146   147    1
   126   124   123    1
   127    18    17    1
   128    18    21    1
   129    18    19    1
   130   114   113    1
   131    77    74    1
   132   120   123    1
   133   120   119    1
   134   106   105    2
   135    20    19    2
   136   148   147    2
   137   119   111   am
   138    74    75    1
   139    74    73    1
   140    26    25    2
   141    25    24    1
   142    75    76    2
   143   112   111    2
   144    27    24    1
   145   111   110    1
   146   113   110    1
   147    24    23    1
   148   110   109    1
