@<TRIPOS>MOLECULE
tmp/1hpsB00.pdb
 113 105 0 0 0
SMALL
GASTEIGER

@<TRIPOS>ATOM
      1  N        -21.3730   19.6480   34.0260 N.3     8  ARG8       -0.1245
      2  CA       -20.6450   19.5050   32.7690 C.3     8  ARG8        0.1563
      3  C        -21.5560   20.1840   31.6850 C.2     8  ARG8        0.2260
      4  O        -22.7930   20.0620   31.7130 O.2     8  ARG8       -0.2867
      5  CB       -20.4280   18.0120   32.4750 C.3     8  ARG8        0.0307
      6  CG       -19.3590   17.2560   33.3020 C.3     8  ARG8        0.0489
      7  CD       -19.4110   15.7420   32.9700 C.3     8  ARG8        0.2205
      8  NE       -18.4080   14.9220   33.6520 N.pl3   8  ARG8       -0.0865
      9  CZ       -17.6430   14.0130   32.9910 C.cat   8  ARG8        0.5346
     10  NH1      -17.7170   13.8570   31.6750 N.pl3   8  ARG8        0.1354
     11  NH2      -16.7230   13.2650   33.6000 N.pl3   8  ARG8        0.1354
     12  N        -20.3260   16.9700   25.2220 N.3    23  LEU23      -0.1245
     13  CA       -19.7200   17.9020   26.1350 C.3    23  LEU23       0.1561
     14  C        -19.0800   19.0690   25.3780 C.2    23  LEU23       0.2260
     15  O        -18.2630   18.8160   24.4730 O.2    23  LEU23      -0.2867
     16  CB       -18.6830   17.1440   26.9260 C.3    23  LEU23       0.0270
     17  CG       -18.0360   17.8870   28.0810 C.3    23  LEU23       0.0019
     18  CD1      -18.9590   17.9390   29.2610 C.3    23  LEU23       0.0001
     19  CD2      -16.8500   17.1320   28.5570 C.3    23  LEU23       0.0001
     20  N        -16.3750   21.2250   24.8840 N.3    25  ASP25      -0.1239
     21  CA       -15.0720   21.2080   25.4290 C.3    25  ASP25       0.1674
     22  C        -14.0730   22.1690   24.8480 C.2    25  ASP25       0.2266
     23  O        -13.3860   21.9260   23.8690 O.2    25  ASP25      -0.2867
     24  CB       -14.6500   19.7720   25.3100 C.3    25  ASP25       0.1410
     25  CG       -13.4870   19.3190   26.1950 C.2    25  ASP25       0.3668
     26  OD1      -12.5970   20.0990   26.5330 O.co2  25  ASP25      -0.2456
     27  OD2      -13.4890   18.1400   26.5670 O.co2  25  ASP25      -0.2456
     28  N        -11.2340   22.7610   25.8860 N.3    27  GLY27      -0.1210
     29  CA        -9.8840   22.2260   25.9390 C.3    27  GLY27       0.1956
     30  C         -9.6370   21.2010   24.8220 C.2    27  GLY27       0.2612
     31  O         -8.6740   20.4040   24.8650 O.2    27  GLY27      -0.2717
     32  N        -10.5450   21.0720   23.8650 N.am   28  ALA28      -0.1965
     33  CA       -10.2560   20.1240   22.8120 C.3    28  ALA28       0.1728
     34  C        -10.0650   20.8420   21.4720 C.2    28  ALA28       0.2616
     35  O        -10.9240   21.6460   21.0630 O.2    28  ALA28      -0.2715
     36  CB       -11.3960   19.0980   22.7440 C.3    28  ALA28       0.0334
     37  N         -8.8850   20.6550   20.8230 N.am   29  ASP29      -0.1957
     38  CA        -8.6710   21.3030   19.5390 C.3    29  ASP29       0.1840
     39  C         -9.6480   20.6790   18.5720 C.2    29  ASP29       0.2622
     40  O        -10.2370   21.4170   17.7670 O.2    29  ASP29      -0.2715
     41  CB        -7.3010   21.1010   18.8750 C.3    29  ASP29       0.1450
     42  CG        -6.1170   21.5090   19.7450 C.2    29  ASP29       0.3671
     43  OD1       -6.0280   22.6770   20.0950 O.co2  29  ASP29      -0.2456
     44  OD2       -5.3000   20.6520   20.1030 O.co2  29  ASP29      -0.2456
     45  N         -9.9250   19.3900   18.7520 N.am   30  ASP30      -0.1971
     46  CA       -10.8260   18.6790   17.8790 C.3    30  ASP30       0.1709
     47  C        -12.0940   18.1180   18.5210 C.2    30  ASP30       0.2293
     48  O        -12.2010   18.0060   19.7390 O.2    30  ASP30      -0.2864
     49  CB       -10.1420   17.5260   17.2660 C.3    30  ASP30       0.1436
     50  CG        -8.9020   17.7980   16.4590 C.2    30  ASP30       0.3671
     51  OD1       -9.0430   18.2720   15.3260 O.co2  30  ASP30      -0.2456
     52  OD2       -7.8220   17.4780   16.9700 O.co2  30  ASP30      -0.2456
     53  N        -14.3760   14.9670   18.8840 N.3    32  VAL32      -0.1245
     54  CA       -14.2710   13.5260   18.7930 C.3    32  VAL32       0.1561
     55  C        -15.4930   12.8440   19.4650 C.2    32  VAL32       0.2260
     56  O        -15.8760   13.0190   20.6290 O.2    32  VAL32      -0.2867
     57  CB       -12.8550   13.1040   19.3460 C.3    32  VAL32       0.0252
     58  CG1      -12.4410   13.9300   20.5080 C.3    32  VAL32       0.0019
     59  CG2      -12.8750   11.6190   19.6110 C.3    32  VAL32       0.0019
     60  N         -4.8950   11.0840   17.7230 N.3    47  ILE47      -0.1231
     61  CA        -5.0390   12.3810   18.4000 C.3    47  ILE47       0.1692
     62  C         -4.5430   12.0570   19.7880 C.2    47  ILE47       0.2593
     63  O         -4.5420   10.8660   20.1760 O.2    47  ILE47      -0.2718
     64  CB        -6.5110   12.9130   18.4920 C.3    47  ILE47       0.0266
     65  CG1       -7.5090   11.9150   19.1160 C.3    47  ILE47       0.0019
     66  CG2       -6.8890   13.3040   17.0820 C.3    47  ILE47       0.0020
     67  CD1       -8.9820   12.4500   19.1710 C.3    47  ILE47       0.0001
     68  N         -4.1070   13.0870   20.5160 N.am   48  GLY48      -0.1942
     69  CA        -3.6030   12.8850   21.8620 C.3    48  GLY48       0.2014
     70  C         -4.4090   13.6250   22.9220 C.2    48  GLY48       0.2639
     71  O         -4.9870   14.6880   22.6450 O.2    48  GLY48      -0.2714
     72  N         -4.4430   13.1350   24.1510 N.am   49  GLY49      -0.1939
     73  CA        -5.0830   13.8230   25.2660 C.3    49  GLY49       0.2014
     74  C         -4.4730   13.3890   26.5900 C.2    49  GLY49       0.2638
     75  O         -3.4570   12.6900   26.5910 O.2    49  GLY49      -0.2714
     76  N         -5.0180   13.7280   27.7560 N.am   50  ILE50      -0.1977
     77  CA        -4.5040   13.1740   29.0060 C.3    50  ILE50       0.1596
     78  C         -4.6890   11.6440   28.9670 C.2    50  ILE50       0.2287
     79  O         -5.6650   11.0990   28.3940 O.2    50  ILE50      -0.2864
     80  CB        -5.2560   13.8610   30.1780 C.3    50  ILE50       0.0276
     81  CG1       -4.2150   14.5990   30.9910 C.3    50  ILE50       0.0022
     82  CG2       -5.9250   12.9070   31.1530 C.3    50  ILE50       0.0022
     83  CD1       -4.8480   15.3710   32.1650 C.3    50  ILE50       0.0001
     84  N         -5.0230    7.7360   21.0030 N.3    54  ILE54      -0.1245
     85  CA        -6.0190    6.7700   20.5210 C.3    54  ILE54       0.1561
     86  C         -6.0430    6.9300   18.9980 C.2    54  ILE54       0.2260
     87  O         -5.6700    8.0080   18.5060 O.2    54  ILE54      -0.2867
     88  CB        -7.4850    6.9880   21.0990 C.3    54  ILE54       0.0252
     89  CG1       -7.9920    8.3970   20.9650 C.3    54  ILE54       0.0019
     90  CG2       -7.4590    6.5770   22.5610 C.3    54  ILE54       0.0019
     91  CD1       -9.5360    8.4330   21.0790 C.3    54  ILE54       0.0001
     92  N        -14.7030    8.2580   25.7430 N.3    81  PRO81      -0.2102
     93  CA       -15.8110    8.0060   26.6660 C.3    81  PRO81       0.1504
     94  C        -16.9990    8.9640   26.5600 C.2    81  PRO81       0.2575
     95  O        -18.1200    8.6600   26.9620 O.2    81  PRO81      -0.2718
     96  CB       -15.1800    8.0780   28.0370 C.3    81  PRO81       0.0282
     97  CG       -13.6830    8.1910   27.8200 C.3    81  PRO81       0.0208
     98  CD       -13.5740    8.8470   26.4660 C.3    81  PRO81       0.0893
     99  N        -16.7120   10.1840   26.0860 N.am   82  VAL82      -0.1980
    100  CA       -17.6890   11.2490   25.9430 C.3    82  VAL82       0.1595
    101  C        -17.5680   11.8130   24.5300 C.2    82  VAL82       0.2287
    102  O        -16.4980   11.7700   23.9070 O.2    82  VAL82      -0.2864
    103  CB       -17.3730   12.3410   27.0610 C.3    82  VAL82       0.0276
    104  CG1      -18.3080   13.5030   26.9690 C.3    82  VAL82       0.0022
    105  CG2      -17.5840   11.7870   28.4660 C.3    82  VAL82       0.0022
    106  N        -17.3450   14.8480   22.3120 N.3    84  ILE84      -0.1245
    107  CA       -16.6880   16.1250   22.5900 C.3    84  ILE84       0.1561
    108  C        -16.8060   17.0230   21.3850 C.2    84  ILE84       0.2260
    109  O        -16.5020   16.5820   20.2840 O.2    84  ILE84      -0.2867
    110  CB       -15.1820   15.8300   22.8910 C.3    84  ILE84       0.0252
    111  CG1      -15.1170   14.9570   24.1150 C.3    84  ILE84       0.0019
    112  CG2      -14.3590   17.1170   23.0170 C.3    84  ILE84       0.0019
    113  CD1      -13.8240   14.1320   24.1550 C.3    84  ILE84       0.0001
@<TRIPOS>BOND
     1    51    50   ar
     2    50    52   ar
     3    50    49    1
     4    66    64    1
     5    49    46    1
     6    60    61    1
     7    40    39    2
     8    46    47    1
     9    46    45    1
    10    61    64    1
    11    61    62    1
    12    64    65    1
    13    87    86    2
    14    47    48    2
    15    39    45   am
    16    39    38    1
    17    54    53    1
    18    54    57    1
    19    54    55    1
    20    41    38    1
    21    41    42    1
    22    86    85    1
    23    65    67    1
    24    57    59    1
    25    57    58    1
    26    55    56    2
    27    38    37    1
    28    42    43   ar
    29    42    44   ar
    30    62    63    2
    31    62    68   am
    32   109   108    2
    33    68    69    1
    34    85    84    1
    35    85    88    1
    36    37    34   am
    37    89    91    1
    38    89    88    1
    39    35    34    2
    40    88    90    1
    41   108   107    1
    42    34    33    1
    43    69    70    1
    44   106   107    1
    45   107   110    1
    46    71    70    2
    47    36    33    1
    48    33    32    1
    49   110   112    1
    50   110   111    1
    51    70    72   am
    52    32    30   am
    53    23    22    2
    54   102   101    2
    55   111   113    1
    56    72    73    1
    57    15    14    2
    58   101   100    1
    59    30    31    2
    60    30    29    1
    61    22    21    1
    62    20    21    1
    63    12    13    1
    64    73    74    1
    65    24    21    1
    66    24    25    1
    67    14    13    1
    68    92    98    1
    69    92    93    1
    70    28    29    1
    71   100    99    1
    72   100   103    1
    73    99    94   am
    74    13    16    1
    75    25    26   ar
    76    25    27   ar
    77    98    97    1
    78    94    93    1
    79    94    95    2
    80    74    75    2
    81    74    76   am
    82    93    96    1
    83    16    17    1
    84   104   103    1
    85   103   105    1
    86    76    77    1
    87    97    96    1
    88    17    19    1
    89    17    18    1
    90    79    78    2
    91    78    77    1
    92    77    80    1
    93    80    81    1
    94    80    82    1
    95    81    83    1
    96    10     9    1
    97     3     4    2
    98     3     2    1
    99     5     2    1
   100     5     6    1
   101     2     1    1
   102     7     6    1
   103     7     8    1
   104     9    11    1
   105     9     8    2
