@<TRIPOS>MOLECULE
tmp/1hpuD00.pdb
 199 186 0 0 0
SMALL
GASTEIGER

@<TRIPOS>ATOM
      1  N        -12.8800   57.9600   43.0170 N.3    18  HIS18      -0.1241
      2  CA       -12.3400   56.6130   43.2330 C.3    18  HIS18       0.1621
      3  C        -10.9110   56.3140   42.7920 C.2    18  HIS18       0.2264
      4  O        -10.6580   55.3710   42.0270 O.2    18  HIS18      -0.2867
      5  CB       -13.2710   55.5840   42.6120 C.3    18  HIS18       0.0745
      6  CG       -14.5740   55.4700   43.3320 C.ar   18  HIS18       0.0817
      7  ND1      -14.6530   55.0310   44.6410 N.ar   18  HIS18      -0.2268
      8  CD2      -15.8360   55.7620   42.9500 C.ar   18  HIS18       0.1154
      9  CE1      -15.9180   55.0550   45.0280 C.ar   18  HIS18       0.1986
     10  NE2      -16.6530   55.4990   44.0210 N.ar   18  HIS18      -0.2212
     11  N        -16.5560   60.0470   47.7030 N.3    59  ASP59      -0.1239
     12  CA       -16.0570   58.7470   47.2460 C.3    59  ASP59       0.1674
     13  C        -14.7870   58.9540   46.4410 C.2    59  ASP59       0.2266
     14  O        -14.6770   58.5630   45.2690 O.2    59  ASP59      -0.2867
     15  CB       -17.0640   57.9780   46.4130 C.3    59  ASP59       0.1410
     16  CG       -17.8710   56.9770   47.2430 C.2    59  ASP59       0.3668
     17  OD1      -17.7510   56.9510   48.4920 O.co2  59  ASP59      -0.2456
     18  OD2      -18.6440   56.2140   46.6420 O.co2  59  ASP59      -0.2456
     19  N        -19.3660   57.2360   51.3130 N.3    91  ASN91      -0.1225
     20  CA       -19.2470   56.0500   52.1310 C.3    91  ASN91       0.1785
     21  C        -17.8680   55.4180   52.0120 C.2    91  ASN91       0.2597
     22  O        -17.3760   54.8360   52.9780 O.2    91  ASN91      -0.2718
     23  CB       -20.3620   55.0270   51.8130 C.3    91  ASN91       0.1169
     24  CG       -20.4060   54.6230   50.3430 C.2    91  ASN91       0.2627
     25  OD1      -20.5370   55.4710   49.4590 O.2    91  ASN91      -0.2716
     26  ND2      -20.3250   53.3210   50.0840 N.am   91  ASN91      -0.0877
     27  N        -17.2150   55.5580   50.8630 N.am   92  HIS92      -0.1975
     28  CA       -15.8800   54.9720   50.7360 C.3    92  HIS92       0.1656
     29  C        -14.8030   55.7050   51.5210 C.2    92  HIS92       0.2291
     30  O        -13.6670   55.2290   51.6110 O.2    92  HIS92      -0.2864
     31  CB       -15.4790   54.8150   49.2740 C.3    92  HIS92       0.0771
     32  CG       -16.1350   53.6400   48.6340 C.ar   92  HIS92       0.0820
     33  ND1      -15.6580   52.3550   48.7930 N.ar   92  HIS92      -0.2267
     34  CD2      -17.2990   53.5340   47.9470 C.ar   92  HIS92       0.1154
     35  CE1      -16.5060   51.5070   48.2340 C.ar   92  HIS92       0.1986
     36  NE2      -17.5080   52.1960   47.7150 N.ar   92  HIS92      -0.2212
     37  N        -14.9510   55.7350   54.3710 N.3    94  PHE94      -0.1227
     38  CA       -14.8950   54.8490   55.5340 C.3    94  PHE94       0.1736
     39  C        -14.3770   53.4420   55.2010 C.2    94  PHE94       0.2595
     40  O        -14.6050   52.4790   55.9430 O.2    94  PHE94      -0.2718
     41  CB       -16.2550   54.7730   56.2480 C.3    94  PHE94       0.0547
     42  CG       -16.6780   56.0830   56.8590 C.ar   94  PHE94      -0.0202
     43  CD1      -16.1890   56.4940   58.1140 C.ar   94  PHE94      -0.0042
     44  CD2      -17.5080   56.9350   56.1690 C.ar   94  PHE94      -0.0042
     45  CE1      -16.5360   57.7430   58.6390 C.ar   94  PHE94      -0.0003
     46  CE2      -17.8600   58.1840   56.6880 C.ar   94  PHE94      -0.0003
     47  CZ       -17.3690   58.5890   57.9290 C.ar   94  PHE94      -0.0000
     48  N        -13.6460   53.3180   54.0950 N.am   95  ASP95      -0.1974
     49  CA       -13.0670   52.0150   53.7390 C.3    95  ASP95       0.1709
     50  C        -11.8280   51.8130   54.5920 C.2    95  ASP95       0.2293
     51  O        -11.3500   50.6910   54.7730 O.2    95  ASP95      -0.2864
     52  CB       -12.6350   51.9720   52.2790 C.3    95  ASP95       0.1436
     53  CG       -13.7870   51.8970   51.3200 C.2    95  ASP95       0.3671
     54  OD1      -14.9590   51.8260   51.7410 O.co2  95  ASP95      -0.2456
     55  OD2      -13.5030   51.8970   50.1020 O.co2  95  ASP95      -0.2456
     56  N        -23.8630   49.1030   54.7790 N.3   153  ILE153     -0.1231
     57  CA       -23.0790   48.3970   53.7780 C.3   153  ILE153      0.1692
     58  C        -21.5660   48.4680   53.9500 C.2   153  ILE153      0.2593
     59  O        -20.8260   47.9270   53.1240 O.2   153  ILE153     -0.2718
     60  CB       -23.4240   48.9140   52.3610 C.3   153  ILE153      0.0266
     61  CG1      -22.9560   50.3670   52.2060 C.3   153  ILE153      0.0019
     62  CG2      -24.9480   48.8450   52.1280 C.3   153  ILE153      0.0020
     63  CD1      -23.2720   50.9620   50.8600 C.3   153  ILE153      0.0001
     64  N        -21.1000   49.1320   55.0060 N.am  154  GLY154     -0.1942
     65  CA       -19.6690   49.2280   55.2310 C.3   154  GLY154      0.2014
     66  C        -19.1830   48.2860   56.3210 C.2   154  GLY154      0.2638
     67  O        -19.9560   47.4970   56.8790 O.2   154  GLY154     -0.2714
     68  N        -17.8910   48.3650   56.6230 N.am  155  ASN155     -0.1972
     69  CA       -17.2650   47.5230   57.6410 C.3   155  ASN155      0.1688
     70  C        -17.7620   47.8150   59.0570 C.2   155  ASN155      0.2292
     71  O        -17.4770   48.8740   59.6150 O.2   155  ASN155     -0.2864
     72  CB       -15.7660   47.7100   57.5750 C.3   155  ASN155      0.1181
     73  CG       -15.0460   46.8690   58.5800 C.2   155  ASN155      0.2629
     74  OD1      -15.3860   45.7000   58.7780 O.2   155  ASN155     -0.2716
     75  ND2      -14.0280   47.4490   59.2220 N.am  155  ASN155     -0.0877
     76  N        -32.2730   50.8010   48.0650 N.3   204  ASN204     -0.1240
     77  CA       -31.2400   51.7350   48.4730 C.3   204  ASN204      0.1653
     78  C        -31.8720   52.7500   49.4050 C.2   204  ASN204      0.2266
     79  O        -33.0830   52.9490   49.3810 O.2   204  ASN204     -0.2867
     80  CB       -30.6690   52.4750   47.2670 C.3   204  ASN204      0.1155
     81  CG       -30.1370   51.5440   46.2080 C.2   204  ASN204      0.2627
     82  OD1      -29.0810   50.9470   46.3660 O.2   204  ASN204     -0.2716
     83  ND2      -30.8800   51.4100   45.1120 N.am  204  ASN204     -0.0877
     84  N        -22.4940   59.0640   44.4450 N.3   227  HIS227     -0.1241
     85  CA       -22.8570   57.7470   44.9650 C.3   227  HIS227      0.1621
     86  C        -23.5190   56.8500   43.9190 C.2   227  HIS227      0.2264
     87  O        -23.0500   55.7440   43.6770 O.2   227  HIS227     -0.2867
     88  CB       -23.7760   57.8750   46.2090 C.3   227  HIS227      0.0745
     89  CG       -24.0360   56.5770   46.9250 C.ar  227  HIS227      0.0817
     90  ND1      -23.0250   55.7240   47.3280 N.ar  227  HIS227     -0.2268
     91  CD2      -25.2000   55.9970   47.3240 C.ar  227  HIS227      0.1154
     92  CE1      -23.5560   54.6770   47.9420 C.ar  227  HIS227      0.1986
     93  NE2      -24.8740   54.8180   47.9520 N.ar  227  HIS227     -0.2212
     94  N        -23.4300   57.2230   40.9090 N.3   229  GLN229     -0.1245
     95  CA       -22.4740   57.2590   39.7910 C.3   229  GLN229      0.1566
     96  C        -23.1900   57.3160   38.4410 C.2   229  GLN229      0.2260
     97  O        -23.0640   56.4210   37.5950 O.2   229  GLN229     -0.2867
     98  CB       -21.4880   56.0810   39.8790 C.3   229  GLN229      0.0367
     99  CG       -20.4500   56.3580   40.9880 C.3   229  GLN229      0.0905
    100  CD       -19.4090   55.2930   41.2070 C.2   229  GLN229      0.2608
    101  OE1      -19.1650   54.9080   42.3450 O.2   229  GLN229     -0.2717
    102  NE2      -18.7560   54.8320   40.1410 N.am  229  GLN229     -0.0878
    103  N        -19.6370   43.4750   38.0960 N.3   350  ARG350     -0.1245
    104  CA       -20.7250   43.7680   39.0240 C.3   350  ARG350      0.1563
    105  C        -22.0410   43.1210   38.5820 C.2   350  ARG350      0.2260
    106  O        -22.7750   42.5820   39.4020 O.2   350  ARG350     -0.2867
    107  CB       -20.9390   45.2800   39.1080 C.3   350  ARG350      0.0307
    108  CG       -21.9660   45.7590   40.1280 C.3   350  ARG350      0.0489
    109  CD       -22.4020   47.1920   39.7700 C.3   350  ARG350      0.2205
    110  NE       -23.4440   47.7370   40.6460 N.pl3 350  ARG350     -0.0865
    111  CZ       -23.2080   48.3850   41.7830 C.cat 350  ARG350      0.5346
    112  NH1      -21.9650   48.5780   42.1930 N.pl3 350  ARG350      0.1354
    113  NH2      -24.2150   48.8360   42.5130 N.pl3 350  ARG350      0.1354
    114  N        -22.9370   39.9950   41.5460 N.3   354  ARG354     -0.1245
    115  CA       -24.0300   40.3250   42.4600 C.3   354  ARG354      0.1563
    116  C        -25.3380   39.6500   42.0040 C.2   354  ARG354      0.2260
    117  O        -26.4200   39.9750   42.5000 O.2   354  ARG354     -0.2867
    118  CB       -24.2570   41.8290   42.5130 C.3   354  ARG354      0.0307
    119  CG       -23.0480   42.6120   42.9800 C.3   354  ARG354      0.0489
    120  CD       -23.3830   44.0680   43.2270 C.3   354  ARG354      0.2205
    121  NE       -22.1800   44.7680   43.6660 N.pl3 354  ARG354     -0.0865
    122  CZ       -22.1780   45.9310   44.3020 C.cat 354  ARG354      0.5346
    123  NH1      -23.3270   46.5500   44.5810 N.pl3 354  ARG354      0.1354
    124  NH2      -21.0140   46.4580   44.6790 N.pl3 354  ARG354      0.1354
    125  N        -19.3410   38.2870   50.2130 N.3   380  SER380     -0.1217
    126  CA       -20.3230   39.0800   49.4640 C.3   380  SER380      0.1889
    127  C        -19.8570   39.3360   48.0390 C.2   380  SER380      0.2288
    128  O        -18.6760   39.6100   47.8090 O.2   380  SER380     -0.2866
    129  CB       -20.5510   40.4570   50.1270 C.3   380  SER380      0.2089
    130  OG       -20.9920   40.3090   51.4630 O.3   380  SER380     -0.2183
    131  N        -20.4800   41.8350   46.5040 N.3   382  GLY382     -0.1210
    132  CA       -20.0830   43.2350   46.5410 C.3   382  GLY382      0.1956
    133  C        -18.6170   43.4290   46.9150 C.2   382  GLY382      0.2612
    134  O        -18.0810   44.5200   46.7410 O.2   382  GLY382     -0.2717
    135  N        -17.9720   42.3890   47.4360 N.am  383  GLY383     -0.1956
    136  CA       -16.5690   42.4960   47.7940 C.3   383  GLY383      0.1869
    137  C        -15.6690   42.2140   46.6000 C.2   383  GLY383      0.2309
    138  O        -14.4550   42.3470   46.6920 O.2   383  GLY383     -0.2863
    139  N        -14.5910   43.4230   43.1260 N.3   385  ARG385     -0.1245
    140  CA       -14.6160   44.6840   42.3850 C.3   385  ARG385      0.1563
    141  C        -14.0770   44.7330   40.9720 C.2   385  ARG385      0.2260
    142  O        -14.0790   45.7870   40.3490 O.2   385  ARG385     -0.2867
    143  CB       -13.9120   45.7550   43.2330 C.3   385  ARG385      0.0307
    144  CG       -14.6120   45.9990   44.5530 C.3   385  ARG385      0.0489
    145  CD       -15.6390   47.0960   44.3290 C.3   385  ARG385      0.2205
    146  NE       -16.7490   47.0110   45.2530 N.pl3 385  ARG385     -0.0865
    147  CZ       -17.5910   48.0010   45.4980 C.cat 385  ARG385      0.5346
    148  NH1      -17.4440   49.1710   44.8920 N.pl3 385  ARG385      0.1354
    149  NH2      -18.5980   47.8040   46.3380 N.pl3 385  ARG385      0.1354
    150  N        -10.4560   46.4170   49.4600 N.3   404  PHE404     -0.1241
    151  CA       -10.8520   46.8860   50.7940 C.3   404  PHE404      0.1605
    152  C         -9.9200   46.5830   51.9500 C.2   404  PHE404      0.2264
    153  O        -10.1480   47.0450   53.0750 O.2   404  PHE404     -0.2867
    154  CB       -12.2450   46.3480   51.1320 C.3   404  PHE404      0.0534
    155  CG       -13.3190   46.7940   50.1670 C.ar  404  PHE404     -0.0203
    156  CD1      -13.7250   48.1230   50.1240 C.ar  404  PHE404     -0.0042
    157  CD2      -13.9220   45.8760   49.3050 C.ar  404  PHE404     -0.0042
    158  CE1      -14.7130   48.5400   49.2390 C.ar  404  PHE404     -0.0003
    159  CE2      -14.9110   46.2710   48.4140 C.ar  404  PHE404     -0.0003
    160  CZ       -15.3120   47.6100   48.3750 C.ar  404  PHE404     -0.0000
    161  N         -9.6180   43.8060   53.5570 N.3   406  ASN406     -0.1240
    162  CA       -10.2360   42.9230   54.5640 C.3   406  ASN406      0.1653
    163  C         -9.2310   41.8660   55.0100 C.2   406  ASN406      0.2266
    164  O         -8.2450   41.5880   54.3140 O.2   406  ASN406     -0.2867
    165  CB       -11.4430   42.1730   54.0050 C.3   406  ASN406      0.1155
    166  CG       -12.6360   43.0610   53.7280 C.2   406  ASN406      0.2627
    167  OD1      -13.6000   42.6060   53.1010 O.2   406  ASN406     -0.2716
    168  ND2      -12.5960   44.3200   54.1810 N.am  406  ASN406     -0.0877
    169  N        -25.1530   44.0300   46.9130 N.3   433  GLY433     -0.1225
    170  CA       -23.7770   43.7170   47.2310 C.3   433  GLY433      0.1811
    171  C        -23.7440   42.5460   48.1940 C.2   433  GLY433      0.2280
    172  O        -22.7400   41.8450   48.2870 O.2   433  GLY433     -0.2866
    173  N        -14.3220   36.6830   55.1840 N.3   471  LEU471     -0.1245
    174  CA       -13.6000   37.9260   55.5190 C.3   471  LEU471      0.1561
    175  C        -14.1330   38.4990   56.8260 C.2   471  LEU471      0.2260
    176  O        -15.2900   38.2460   57.1920 O.2   471  LEU471     -0.2867
    177  CB       -13.7540   38.9710   54.4110 C.3   471  LEU471      0.0270
    178  CG       -13.1410   38.5320   53.0720 C.3   471  LEU471      0.0019
    179  CD1      -13.4210   39.5800   52.0500 C.3   471  LEU471      0.0001
    180  CD2      -11.6340   38.3170   53.1910 C.3   471  LEU471      0.0001
    181  N        -14.9810   41.3250   57.3450 N.3   473  PHE473     -0.1241
    182  CA       -16.1230   42.1670   56.9800 C.3   473  PHE473      0.1605
    183  C        -17.4290   41.3840   57.1890 C.2   473  PHE473      0.2264
    184  O        -18.3400   41.8490   57.8830 O.2   473  PHE473     -0.2867
    185  CB       -16.0420   42.5950   55.5080 C.3   473  PHE473      0.0534
    186  CG       -17.2610   43.3420   55.0130 C.ar  473  PHE473     -0.0203
    187  CD1      -17.4200   44.7030   55.2790 C.ar  473  PHE473     -0.0042
    188  CD2      -18.2520   42.6830   54.2780 C.ar  473  PHE473     -0.0042
    189  CE1      -18.5460   45.4000   54.8170 C.ar  473  PHE473     -0.0003
    190  CE2      -19.3760   43.3670   53.8160 C.ar  473  PHE473     -0.0003
    191  CZ       -19.5260   44.7300   54.0830 C.ar  473  PHE473     -0.0000
    192  N        -22.8540   43.5260   55.4980 N.3   479  ASP479     -0.1239
    193  CA       -23.9330   43.1670   54.5750 C.3   479  ASP479      0.1674
    194  C        -25.0680   42.3580   55.2340 C.2   479  ASP479      0.2266
    195  O        -25.8560   41.7150   54.5410 O.2   479  ASP479     -0.2867
    196  CB       -23.4010   42.3830   53.3690 C.3   479  ASP479      0.1410
    197  CG       -22.8820   43.2850   52.2610 C.2   479  ASP479      0.3668
    198  OD1      -23.3610   44.4330   52.1450 O.co2 479  ASP479     -0.2456
    199  OD2      -22.0110   42.8320   51.4850 O.co2 479  ASP479     -0.2456
@<TRIPOS>BOND
     1    97    96    2
     2   103   104    1
     3    96    95    1
     4   105   104    1
     5   105   106    2
     6   104   107    1
     7   107   108    1
     8   109   108    1
     9   109   110    1
    10    95    98    1
    11    95    94    1
    12    98    99    1
    13   102   100   am
    14   142   141    2
    15   110   111    2
    16   141   140    1
    17    99   100    1
    18   100   101    2
    19   114   115    1
    20   111   112    1
    21   111   113    1
    22   116   115    1
    23   116   117    2
    24     4     3    2
    25   140   139    1
    26   140   143    1
    27   115   118    1
    28   118   119    1
    29     5     2    1
    30     5     6    1
    31     3     2    1
    32     8     6   ar
    33     8    10   ar
    34   119   120    1
    35     1     2    1
    36   120   121    1
    37   143   144    1
    38     6     7   ar
    39   121   122    2
    40    87    86    2
    41    86    85    1
    42    10     9   ar
    43   122   123    1
    44   122   124    1
    45   145   144    1
    46   145   146    1
    47    84    85    1
    48     7     9   ar
    49   148   147    1
    50    85    88    1
    51    83    81   am
    52   146   147    2
    53    14    13    2
    54   147   149    1
    55    81    82    2
    56    81    80    1
    57    88    89    1
    58    15    16    1
    59    15    12    1
    60    13    12    1
    61   131   132    1
    62   132   133    1
    63   137   138    2
    64   137   136    1
    65    18    16   ar
    66   134   133    2
    67   169   170    1
    68   133   135   am
    69    89    91   ar
    70    89    90   ar
    71   170   171    1
    72    16    17   ar
    73    12    11    1
    74    80    77    1
    75    91    93   ar
    76    90    92   ar
    77   135   136    1
    78    36    34   ar
    79    36    35   ar
    80   128   127    2
    81    92    93   ar
    82    34    32   ar
    83   127   126    1
    84    76    77    1
    85   171   172    2
    86    35    33   ar
    87   160   159   ar
    88   160   158   ar
    89   159   157   ar
    90    77    78    1
    91    32    33   ar
    92    32    31    1
    93   158   156   ar
    94    31    28    1
    95   157   155   ar
    96    79    78    2
    97    25    24    2
    98   150   151    1
    99   126   129    1
   100   126   125    1
   101    26    24   am
   102    55    53   ar
   103   156   155   ar
   104   129   130    1
   105   155   154    1
   106    24    23    1
   107    28    27    1
   108    28    29    1
   109   151   154    1
   110   151   152    1
   111    63    61    1
   112    27    21   am
   113    19    20    1
   114    53    54   ar
   115    53    52    1
   116   199   197   ar
   117    29    30    2
   118    23    20    1
   119   152   153    2
   120    21    20    1
   121    21    22    2
   122   179   178    1
   123    62    60    1
   124   198   197   ar
   125    61    60    1
   126   197   196    1
   127    52    49    1
   128    60    57    1
   129   178   180    1
   130   178   177    1
   131   167   166    2
   132    59    58    2
   133   196   193    1
   134   161   162    1
   135   166   165    1
   136   166   168   am
   137    49    48    1
   138    49    50    1
   139    57    58    1
   140    57    56    1
   141   190   191   ar
   142   190   188   ar
   143    58    64   am
   144   165   162    1
   145   191   189   ar
   146    48    39   am
   147   188   186   ar
   148   164   163    2
   149    37    38    1
   150   177   174    1
   151   195   194    2
   152   162   163    1
   153   193   194    1
   154   193   192    1
   155    50    51    2
   156   189   187   ar
   157    64    65    1
   158   186   187   ar
   159   186   185    1
   160   173   174    1
   161    39    38    1
   162    39    40    2
   163    65    66    1
   164   185   182    1
   165   174   175    1
   166    38    41    1
   167    44    46   ar
   168    44    42   ar
   169    41    42    1
   170    66    68   am
   171    66    67    2
   172    68    69    1
   173    46    47   ar
   174   175   176    2
   175    42    43   ar
   176   182   183    1
   177   182   181    1
   178   183   184    2
   179    72    69    1
   180    72    73    1
   181    69    70    1
   182    47    45   ar
   183    43    45   ar
   184    73    74    2
   185    73    75   am
   186    70    71    2
