@<TRIPOS>MOLECULE
tmp/1hq2A01.pdb
 113 107 0 0 0
SMALL
GASTEIGER

@<TRIPOS>ATOM
      1  N         -4.2300    4.7930   12.3400 N.3     8  GLY8       -0.1225
      2  CA        -4.5860    6.1720   12.6510 C.3     8  GLY8        0.1811
      3  C         -3.3250    7.0340   12.7130 C.2     8  GLY8        0.2280
      4  O         -2.2520    6.6040   13.1300 O.2     8  GLY8       -0.2866
      5  N        -11.0830   12.0030    9.9380 N.3    42  THR42      -0.1204
      6  CA       -12.0580   11.8350   11.0030 C.3    42  THR42       0.1979
      7  C        -11.7750   12.7540   12.1850 C.2    42  THR42       0.2459
      8  O        -10.6240   13.0250   12.5560 O.2    42  THR42      -0.2732
      9  CB       -12.1300   10.3760   11.4840 C.3    42  THR42       0.1783
     10  OG1      -10.8670   10.0820   12.0920 O.3    42  THR42      -0.2211
     11  CG2      -12.4100    9.4080   10.3340 C.3    42  THR42       0.0376
     12  N        -12.8130   13.3510   12.7680 N.am   43  PRO43      -0.2728
     13  CA       -12.6100   14.2380   13.9230 C.3    43  PRO43       0.1401
     14  C        -12.1070   13.4050   15.0830 C.2    43  PRO43       0.2269
     15  O        -12.5030   12.2390   15.2480 O.2    43  PRO43      -0.2865
     16  CB       -14.0100   14.7580   14.2480 C.3    43  PRO43       0.0296
     17  CG       -14.6790   14.6700   12.9110 C.3    43  PRO43       0.0237
     18  CD       -14.2320   13.2720   12.3630 C.3    43  PRO43       0.0939
     19  N        -11.7700   11.4960   18.4640 N.3    45  LEU45      -0.1245
     20  CA       -12.4230   10.9830   19.6430 C.3    45  LEU45       0.1561
     21  C        -11.4670   11.3050   20.8070 C.2    45  LEU45       0.2260
     22  O        -10.2750   10.9630   20.8360 O.2    45  LEU45      -0.2867
     23  CB       -12.5440    9.4650   19.5620 C.3    45  LEU45       0.0270
     24  CG       -13.1300    8.7460   20.7760 C.3    45  LEU45       0.0019
     25  CD1      -14.5260    9.2300   21.1050 C.3    45  LEU45       0.0001
     26  CD2      -13.0860    7.2480   20.5520 C.3    45  LEU45       0.0001
     27  N         -7.7370   13.0050   12.3700 N.3    53  TYR53      -0.1241
     28  CA        -6.9870   11.8030   12.0380 C.3    53  TYR53       0.1605
     29  C         -7.2030   11.3990   10.5800 C.2    53  TYR53       0.2264
     30  O         -8.2990   11.5880   10.0460 O.2    53  TYR53      -0.2867
     31  CB        -7.5600   10.6660   12.9160 C.3    53  TYR53       0.0534
     32  CG        -6.9990   10.6610   14.3210 C.ar   53  TYR53      -0.0201
     33  CD1       -7.5010   11.4820   15.3110 C.ar   53  TYR53      -0.0009
     34  CD2       -5.9250    9.8700   14.6510 C.ar   53  TYR53      -0.0009
     35  CE1       -6.9960   11.4850   16.5950 C.ar   53  TYR53       0.0417
     36  CE2       -5.3980    9.8500   15.9170 C.ar   53  TYR53       0.0417
     37  CZ        -5.9190   10.6750   16.8820 C.ar   53  TYR53       0.1957
     38  OH        -5.4090   10.6970   18.1670 O.3    53  TYR53      -0.2866
     39  N         -7.6510    7.8820    9.1230 N.3    55  ASN55      -0.1240
     40  CA        -7.9260    6.5040    9.5010 C.3    55  ASN55       0.1653
     41  C         -8.0580    5.6180    8.2720 C.2    55  ASN55       0.2266
     42  O         -8.6550    6.0160    7.2530 O.2    55  ASN55      -0.2867
     43  CB        -9.1920    6.4270   10.3460 C.3    55  ASN55       0.1155
     44  CG        -9.0070    6.8370   11.7900 C.2    55  ASN55       0.2627
     45  OD1       -9.5680    7.8350   12.2610 O.2    55  ASN55      -0.2716
     46  ND2       -8.2020    6.0660   12.4850 N.am   55  ASN55      -0.0877
     47  N         -5.9470    9.0370   24.6330 N.3    89  TRP89      -0.1227
     48  CA        -6.5660    9.4190   23.3820 C.3    89  TRP89       0.1737
     49  C         -6.0310   10.6840   22.7280 C.2    89  TRP89       0.2596
     50  O         -6.7010   11.3110   21.9060 O.2    89  TRP89      -0.2718
     51  CB        -8.0920    9.3820   23.4700 C.3    89  TRP89       0.0564
     52  CG        -8.6560    8.0130   23.6680 C.ar   89  TRP89       0.0003
     53  CD1       -7.9800    6.8260   23.6090 C.ar   89  TRP89       0.0946
     54  CD2      -10.0390    7.6700   23.8470 C.ar   89  TRP89       0.0152
     55  NE1       -8.8250    5.7820   23.8020 N.ar   89  TRP89      -0.2442
     56  CE2      -10.1110    6.2640   23.9630 C.ar   89  TRP89       0.0810
     57  CE3      -11.2150    8.4200   23.9790 C.ar   89  TRP89       0.0012
     58  CZ2      -11.3040    5.5680   24.1750 C.ar   89  TRP89       0.0191
     59  CZ3      -12.4110    7.7560   24.2030 C.ar   89  TRP89       0.0001
     60  CH2      -12.4350    6.3490   24.2990 C.ar   89  TRP89       0.0015
     61  N         -4.8150   11.0490   23.1210 N.am   90  GLY90      -0.1957
     62  CA        -4.0640   12.1440   22.5320 C.3    90  GLY90       0.1869
     63  C         -3.4090   11.7740   21.2280 C.2    90  GLY90       0.2309
     64  O         -3.5260   10.6530   20.7460 O.2    90  GLY90      -0.2863
     65  N         -1.0010   11.1960   17.8080 N.3    92  ARG92      -0.1245
     66  CA         0.0380   10.2110   17.4780 C.3    92  ARG92       0.1563
     67  C          0.4620   10.4160   16.0210 C.2    92  ARG92       0.2260
     68  O         -0.4260   10.5320   15.1490 O.2    92  ARG92      -0.2867
     69  CB        -0.5060    8.7720   17.5690 C.3    92  ARG92       0.0307
     70  CG        -0.7780    8.2350   18.9270 C.3    92  ARG92       0.0489
     71  CD         0.4310    8.0180   19.7960 C.3    92  ARG92       0.2205
     72  NE         0.0190    7.7550   21.1760 N.pl3  92  ARG92      -0.0865
     73  CZ        -0.5460    6.6250   21.5850 C.cat  92  ARG92       0.5346
     74  NH1       -0.5920    5.5690   20.7760 N.pl3  92  ARG92       0.1354
     75  NH2       -0.9670    6.5160   22.8590 N.pl3  92  ARG92       0.1354
     76  N         -0.6420    5.1780   14.9520 N.3    95  ASP95      -0.1239
     77  CA        -1.2970    4.2500   15.8420 C.3    95  ASP95       0.1674
     78  C         -1.7260    3.0020   15.0780 C.2    95  ASP95       0.2266
     79  O         -2.5480    3.1620   14.1630 O.2    95  ASP95      -0.2867
     80  CB        -2.4700    4.9310   16.5710 C.3    95  ASP95       0.1410
     81  CG        -3.0600    3.9950   17.6110 C.2    95  ASP95       0.3668
     82  OD1       -2.3180    3.3490   18.3920 O.co2  95  ASP95      -0.2456
     83  OD2       -4.3100    3.9360   17.6170 O.co2  95  ASP95      -0.2456
     84  N         -3.5140   -0.4540   15.6160 N.3    97  ASP97      -0.1239
     85  CA        -4.2950   -1.2340   16.5580 C.3    97  ASP97       0.1674
     86  C         -4.7770   -2.5240   15.8970 C.2    97  ASP97       0.2266
     87  O         -5.2980   -2.5090   14.7900 O.2    97  ASP97      -0.2867
     88  CB        -5.4780   -0.4340   17.0970 C.3    97  ASP97       0.1410
     89  CG        -5.0950    0.7440   17.9580 C.2    97  ASP97       0.3668
     90  OD1       -3.9170    0.8000   18.3690 O.co2  97  ASP97      -0.2456
     91  OD2       -6.0020    1.5360   18.2660 O.co2  97  ASP97      -0.2456
     92  N        -16.7580    2.6940   17.3900 N.3   121  ARG121     -0.1245
     93  CA       -16.0470    3.6700   16.5670 C.3   121  ARG121      0.1563
     94  C        -16.2950    3.5730   15.0800 C.2   121  ARG121      0.2260
     95  O        -15.7890    2.6180   14.4600 O.2   121  ARG121     -0.2867
     96  CB       -14.5370    3.4760   16.8410 C.3   121  ARG121      0.0307
     97  CG       -14.1020    3.7800   18.2550 C.3   121  ARG121      0.0489
     98  CD       -12.6750    3.2700   18.4730 C.3   121  ARG121      0.2205
     99  NE       -12.1680    3.6770   19.7860 N.pl3 121  ARG121     -0.0865
    100  CZ       -10.8890    3.6480   20.1500 C.cat 121  ARG121      0.5346
    101  NH1       -9.9510    3.2670   19.2880 N.pl3 121  ARG121      0.1354
    102  NH2      -10.5180    4.0080   21.3750 N.pl3 121  ARG121      0.1354
    103  N        -14.7940    5.2300   12.8990 N.3   123  PHE123     -0.1241
    104  CA       -13.5020    5.3600   12.2810 C.3   123  PHE123      0.1605
    105  C        -12.7290    4.0660   12.1790 C.2   123  PHE123      0.2264
    106  O        -11.7400    3.9990   11.4470 O.2   123  PHE123     -0.2867
    107  CB       -12.6910    6.5300   12.8410 C.3   123  PHE123      0.0534
    108  CG       -12.2480    6.3600   14.2820 C.ar  123  PHE123     -0.0203
    109  CD1      -11.1820    5.5650   14.6350 C.ar  123  PHE123     -0.0042
    110  CD2      -12.9310    7.0290   15.2920 C.ar  123  PHE123     -0.0042
    111  CE1      -10.8450    5.3600   15.9410 C.ar  123  PHE123     -0.0003
    112  CE2      -12.5390    6.8700   16.6040 C.ar  123  PHE123     -0.0003
    113  CZ       -11.4690    6.0540   16.9490 C.ar  123  PHE123     -0.0000
@<TRIPOS>BOND
     1    42    41    2
     2    41    40    1
     3    39    40    1
     4    40    43    1
     5     5     6    1
     6    30    29    2
     7    11     9    1
     8    43    44    1
     9    29    28    1
    10     6     9    1
    11     6     7    1
    12   106   105    2
    13     9    10    1
    14    44    45    2
    15    44    46   am
    16    28    27    1
    17    28    31    1
    18   105   104    1
    19     7     8    2
    20     7    12   am
    21   104   107    1
    22   104   103    1
    23     1     2    1
    24    18    12    1
    25    18    17    1
    26     2     3    1
    27     3     4    2
    28    12    13    1
    29   107   108    1
    30    17    16    1
    31    31    32    1
    32    13    16    1
    33    13    14    1
    34    79    78    2
    35   108   109   ar
    36   108   110   ar
    37    32    34   ar
    38    32    33   ar
    39    95    94    2
    40   109   111   ar
    41    34    36   ar
    42    87    86    2
    43    76    77    1
    44    78    77    1
    45    94    93    1
    46    14    15    2
    47    68    67    2
    48   110   112   ar
    49    33    35   ar
    50    84    85    1
    51    77    80    1
    52    86    85    1
    53    36    37   ar
    54   111   113   ar
    55    67    66    1
    56    85    88    1
    57    93    96    1
    58    93    92    1
    59    80    81    1
    60    35    37   ar
    61   112   113   ar
    62    96    97    1
    63    37    38    1
    64    88    89    1
    65    66    69    1
    66    66    65    1
    67    69    70    1
    68    81    83   ar
    69    81    82   ar
    70    89    91   ar
    71    89    90   ar
    72    97    98    1
    73    19    20    1
    74    98    99    1
    75    70    71    1
    76   101   100    1
    77    23    20    1
    78    23    24    1
    79    20    21    1
    80    99   100    2
    81    71    72    1
    82   100   102    1
    83    26    24    1
    84    64    63    2
    85    74    73    1
    86    24    25    1
    87    21    22    2
    88    72    73    2
    89    63    62    1
    90    73    75    1
    91    50    49    2
    92    62    61    1
    93    49    61   am
    94    49    48    1
    95    48    51    1
    96    48    47    1
    97    51    52    1
    98    53    52   ar
    99    53    55   ar
   100    52    54   ar
   101    55    56   ar
   102    54    56   ar
   103    54    57   ar
   104    56    58   ar
   105    57    59   ar
   106    58    60   ar
   107    59    60   ar
