@<TRIPOS>MOLECULE
tmp/1hq2A00.pdb
 173 167 0 0 0
SMALL
GASTEIGER

@<TRIPOS>ATOM
      1  N          2.0570   -8.0010   17.2240 N.3    70  LEU70      -0.1245
      2  CA         2.0720   -6.7430   18.0100 C.3    70  LEU70       0.1561
      3  C          3.4760   -6.1750   18.1720 C.2    70  LEU70       0.2260
      4  O          3.7080   -4.9640   18.1150 O.2    70  LEU70      -0.2867
      5  CB         1.4540   -7.0670   19.3780 C.3    70  LEU70       0.0270
      6  CG         1.2510   -5.8510   20.2830 C.3    70  LEU70       0.0019
      7  CD1        0.2610   -4.8740   19.6920 C.3    70  LEU70       0.0001
      8  CD2        0.9370   -6.2630   21.7240 C.3    70  LEU70       0.0001
      9  N          4.2160   -2.4160   16.8770 N.3    74  GLN74      -0.1245
     10  CA         4.7470   -1.4360   17.7900 C.3    74  GLN74       0.1566
     11  C          6.0790   -0.9080   17.3030 C.2    74  GLN74       0.2260
     12  O          6.4290    0.2670   17.4960 O.2    74  GLN74      -0.2867
     13  CB         4.8540   -2.0240   19.1940 C.3    74  GLN74       0.0367
     14  CG         3.4870   -2.2450   19.8320 C.3    74  GLN74       0.0905
     15  CD         3.5390   -2.8200   21.2280 C.2    74  GLN74       0.2608
     16  OE1        4.5380   -3.4140   21.6490 O.2    74  GLN74      -0.2717
     17  NE2        2.4670   -2.6010   21.9410 N.am   74  GLN74      -0.0878
     18  N          5.3990    1.7020   14.7760 N.3    77  GLU77      -0.1245
     19  CA         5.0050    2.9520   15.4430 C.3    77  GLU77       0.1567
     20  C          6.2250    3.7150   15.8820 C.2    77  GLU77       0.2260
     21  O          6.3040    4.9260   15.6520 O.2    77  GLU77      -0.2867
     22  CB         4.1130    2.6230   16.6300 C.3    77  GLU77       0.0388
     23  CG         2.7260    2.1310   16.3300 C.3    77  GLU77       0.1160
     24  CD         1.9000    1.8190   17.5460 C.2    77  GLU77       0.3649
     25  OE1        2.4960    1.4340   18.5770 O.co2  77  GLU77      -0.2457
     26  OE2        0.6510    1.9510   17.4770 O.co2  77  GLU77      -0.2457
     27  N          3.9750    8.1950   23.1570 N.3    84  ARG84      -0.1245
     28  CA         2.7690    8.0390   23.9720 C.3    84  ARG84       0.1563
     29  C          2.7450    9.1460   25.0270 C.2    84  ARG84       0.2260
     30  O          3.4730    9.1530   26.0090 O.2    84  ARG84      -0.2867
     31  CB         2.7420    6.6580   24.6010 C.3    84  ARG84       0.0307
     32  CG         1.5580    6.4680   25.5420 C.3    84  ARG84       0.0489
     33  CD         1.8250    5.3240   26.4850 C.3    84  ARG84       0.2205
     34  NE         2.3300    4.1460   25.7920 N.pl3  84  ARG84      -0.0865
     35  CZ         2.0960    2.9050   26.2040 C.cat  84  ARG84       0.5346
     36  NH1        1.3720    2.7040   27.2960 N.pl3  84  ARG84       0.1354
     37  NH2        2.5910    1.8700   25.5420 N.pl3  84  ARG84       0.1354
     38  N         -5.9470    9.0370   24.6330 N.3    89  TRP89      -0.1227
     39  CA        -6.5660    9.4190   23.3820 C.3    89  TRP89       0.1737
     40  C         -6.0310   10.6840   22.7280 C.2    89  TRP89       0.2596
     41  O         -6.7010   11.3110   21.9060 O.2    89  TRP89      -0.2718
     42  CB        -8.0920    9.3820   23.4700 C.3    89  TRP89       0.0564
     43  CG        -8.6560    8.0130   23.6680 C.ar   89  TRP89       0.0003
     44  CD1       -7.9800    6.8260   23.6090 C.ar   89  TRP89       0.0946
     45  CD2      -10.0390    7.6700   23.8470 C.ar   89  TRP89       0.0152
     46  NE1       -8.8250    5.7820   23.8020 N.ar   89  TRP89      -0.2442
     47  CE2      -10.1110    6.2640   23.9630 C.ar   89  TRP89       0.0810
     48  CE3      -11.2150    8.4200   23.9790 C.ar   89  TRP89       0.0012
     49  CZ2      -11.3040    5.5680   24.1750 C.ar   89  TRP89       0.0191
     50  CZ3      -12.4110    7.7560   24.2030 C.ar   89  TRP89       0.0001
     51  CH2      -12.4350    6.3490   24.2990 C.ar   89  TRP89       0.0015
     52  N         -4.8150   11.0490   23.1210 N.am   90  GLY90      -0.1957
     53  CA        -4.0640   12.1440   22.5320 C.3    90  GLY90       0.1869
     54  C         -3.4090   11.7740   21.2280 C.2    90  GLY90       0.2309
     55  O         -3.5260   10.6530   20.7460 O.2    90  GLY90      -0.2863
     56  N         -1.0010   11.1960   17.8080 N.3    92  ARG92      -0.1245
     57  CA         0.0380   10.2110   17.4780 C.3    92  ARG92       0.1563
     58  C          0.4620   10.4160   16.0210 C.2    92  ARG92       0.2260
     59  O         -0.4260   10.5320   15.1490 O.2    92  ARG92      -0.2867
     60  CB        -0.5060    8.7720   17.5690 C.3    92  ARG92       0.0307
     61  CG        -0.7780    8.2350   18.9270 C.3    92  ARG92       0.0489
     62  CD         0.4310    8.0180   19.7960 C.3    92  ARG92       0.2205
     63  NE         0.0190    7.7550   21.1760 N.pl3  92  ARG92      -0.0865
     64  CZ        -0.5460    6.6250   21.5850 C.cat  92  ARG92       0.5346
     65  NH1       -0.5920    5.5690   20.7760 N.pl3  92  ARG92       0.1354
     66  NH2       -0.9670    6.5160   22.8590 N.pl3  92  ARG92       0.1354
     67  N         -0.6420    5.1780   14.9520 N.3    95  ASP95      -0.1225
     68  CA        -1.2970    4.2500   15.8420 C.3    95  ASP95       0.1805
     69  C         -1.7260    3.0020   15.0780 C.2    95  ASP95       0.2598
     70  O         -2.5480    3.1620   14.1630 O.2    95  ASP95      -0.2718
     71  CB        -2.4700    4.9310   16.5710 C.3    95  ASP95       0.1424
     72  CG        -3.0600    3.9950   17.6110 C.2    95  ASP95       0.3668
     73  OD1       -2.3180    3.3490   18.3920 O.co2  95  ASP95      -0.2456
     74  OD2       -4.3100    3.9360   17.6170 O.co2  95  ASP95      -0.2456
     75  N         -1.1620    1.8440   15.3860 N.am   96  LEU96      -0.1966
     76  CA        -1.5360    0.6140   14.7190 C.3    96  LEU96       0.1728
     77  C         -2.2060   -0.2710   15.7790 C.2    96  LEU96       0.2616
     78  O         -1.5650   -0.7270   16.7180 O.2    96  LEU96      -0.2715
     79  CB        -0.3000   -0.0820   14.1550 C.3    96  LEU96       0.0311
     80  CG         0.4170    0.6360   13.0230 C.3    96  LEU96       0.0022
     81  CD1        1.6840   -0.1180   12.6250 C.3    96  LEU96       0.0001
     82  CD2       -0.4760    0.8530   11.7940 C.3    96  LEU96       0.0001
     83  N         -3.5140   -0.4540   15.6160 N.am   97  ASP97      -0.1957
     84  CA        -4.2950   -1.2340   16.5580 C.3    97  ASP97       0.1840
     85  C         -4.7770   -2.5240   15.8970 C.2    97  ASP97       0.2621
     86  O         -5.2980   -2.5090   14.7900 O.2    97  ASP97      -0.2715
     87  CB        -5.4780   -0.4340   17.0970 C.3    97  ASP97       0.1450
     88  CG        -5.0950    0.7440   17.9580 C.2    97  ASP97       0.3671
     89  OD1       -3.9170    0.8000   18.3690 O.co2  97  ASP97      -0.2456
     90  OD2       -6.0020    1.5360   18.2660 O.co2  97  ASP97      -0.2456
     91  N         -4.6170   -3.6550   16.5840 N.am   98  ILE98      -0.1977
     92  CA        -5.0910   -4.9380   16.0630 C.3    98  ILE98       0.1596
     93  C         -6.5860   -5.0480   16.4120 C.2    98  ILE98       0.2287
     94  O         -6.9860   -5.1700   17.5840 O.2    98  ILE98      -0.2864
     95  CB        -4.2740   -6.1130   16.5980 C.3    98  ILE98       0.0276
     96  CG1       -2.8000   -6.0390   16.2370 C.3    98  ILE98       0.0022
     97  CG2       -4.8950   -7.4340   16.1620 C.3    98  ILE98       0.0022
     98  CD1       -1.9060   -7.0160   16.9540 C.3    98  ILE98       0.0001
     99  N         -2.7010   -9.4410   29.4480 N.3   109  GLU109     -0.1231
    100  CA        -2.2570   -8.1260   29.8320 C.3   109  GLU109      0.1699
    101  C         -1.8690   -7.2330   28.6640 C.2   109  GLU109      0.2592
    102  O         -2.2110   -6.0500   28.6530 O.2   109  GLU109     -0.2718
    103  CB        -1.1420   -8.2940   30.8720 C.3   109  GLU109      0.0402
    104  CG        -0.6190   -6.9560   31.3720 C.3   109  GLU109      0.1161
    105  CD         0.2350   -7.0560   32.6050 C.2   109  GLU109      0.3649
    106  OE1        0.2160   -8.1400   33.2400 O.co2 109  GLU109     -0.2457
    107  OE2        0.8250   -5.9870   32.9230 O.co2 109  GLU109     -0.2457
    108  N         -1.0830   -7.7160   27.7140 N.am  110  ARG110     -0.1966
    109  CA        -0.6210   -6.9110   26.5940 C.3   110  ARG110      0.1729
    110  C         -1.6300   -6.7040   25.4940 C.2   110  ARG110      0.2616
    111  O         -1.5480   -5.8040   24.6720 O.2   110  ARG110     -0.2715
    112  CB         0.5750   -7.5550   25.8820 C.3   110  ARG110      0.0348
    113  CG         1.9300   -7.2130   26.3900 C.3   110  ARG110      0.0492
    114  CD         2.9670   -7.8030   25.4280 C.3   110  ARG110      0.2205
    115  NE         3.3870   -6.7800   24.4830 N.pl3 110  ARG110     -0.0865
    116  CZ         4.2310   -7.0650   23.5020 C.cat 110  ARG110      0.5346
    117  NH1        4.6660   -8.2920   23.2970 N.pl3 110  ARG110      0.1354
    118  NH2        4.5940   -6.1230   22.6340 N.pl3 110  ARG110      0.1354
    119  N         -2.5750   -7.5770   25.2920 N.am  111  LEU111     -0.1963
    120  CA        -3.3370   -7.8010   24.1010 C.3   111  LEU111      0.1728
    121  C         -4.7760   -8.2150   24.4410 C.2   111  LEU111      0.2617
    122  O         -4.9980   -9.2520   25.0880 O.2   111  LEU111     -0.2715
    123  CB        -2.6740   -8.8400   23.2200 C.3   111  LEU111      0.0311
    124  CG        -3.0270   -8.8780   21.7740 C.3   111  LEU111      0.0022
    125  CD1       -2.9910   -7.5420   21.0670 C.3   111  LEU111      0.0001
    126  CD2       -2.2460   -9.9270   21.0310 C.3   111  LEU111      0.0001
    127  N         -5.7050   -7.4120   23.9330 N.am  112  THR112     -0.1937
    128  CA        -7.1350   -7.6870   23.9750 C.3   112  THR112      0.2028
    129  C         -7.7070   -7.6140   22.5440 C.2   112  THR112      0.2642
    130  O         -7.6150   -6.5800   21.8850 O.2   112  THR112     -0.2714
    131  CB        -7.8900   -6.6950   24.8540 C.3   112  THR112      0.1808
    132  OG1       -7.4380   -6.8430   26.2060 O.3   112  THR112     -0.2208
    133  CG2       -9.3900   -6.9410   24.8910 C.3   112  THR112      0.0379
    134  N         -8.2160   -8.7640   22.1120 N.am  113  VAL113     -0.1977
    135  CA        -8.6720   -8.9310   20.7650 C.3   113  VAL113      0.1596
    136  C        -10.0180   -9.6800   20.8650 C.2   113  VAL113      0.2287
    137  O        -10.0370  -10.7040   21.5580 O.2   113  VAL113     -0.2864
    138  CB        -7.7040   -9.6460   19.8290 C.3   113  VAL113      0.0276
    139  CG1       -8.3570   -9.8210   18.4620 C.3   113  VAL113      0.0022
    140  CG2       -6.4200   -8.8560   19.7080 C.3   113  VAL113      0.0022
    141  N        -10.4500   -5.7630   19.4720 N.3   115  HIS115     -0.1226
    142  CA       -10.1150   -4.4890   20.0860 C.3   115  HIS115      0.1752
    143  C        -11.2760   -3.9900   20.9400 C.2   115  HIS115      0.2596
    144  O        -12.4110   -4.0340   20.4800 O.2   115  HIS115     -0.2718
    145  CB        -9.7690   -3.4830   18.9860 C.3   115  HIS115      0.0759
    146  CG        -9.3570   -2.1230   19.4860 C.ar  115  HIS115      0.0818
    147  ND1      -10.2900   -1.1980   19.8410 N.ar  115  HIS115     -0.2268
    148  CD2       -8.1430   -1.5570   19.6990 C.ar  115  HIS115      0.1154
    149  CE1       -9.6770   -0.0900   20.2630 C.ar  115  HIS115      0.1986
    150  NE2       -8.3620   -0.2970   20.1890 N.ar  115  HIS115     -0.2212
    151  N        -10.9550   -3.6020   22.1630 N.am  116  TYR116     -0.1976
    152  CA       -11.9640   -3.3760   23.1900 C.3   116  TYR116      0.1639
    153  C        -13.0380   -2.3760   22.8200 C.2   116  TYR116      0.2290
    154  O        -14.1510   -2.4730   23.3320 O.2   116  TYR116     -0.2864
    155  CB       -11.2970   -2.9980   24.5100 C.3   116  TYR116      0.0560
    156  CG       -10.8440   -1.5650   24.5670 C.ar  116  TYR116     -0.0198
    157  CD1       -9.8580   -1.0750   23.7180 C.ar  116  TYR116     -0.0009
    158  CD2      -11.3960   -0.6790   25.4780 C.ar  116  TYR116     -0.0009
    159  CE1       -9.4490    0.2480   23.7330 C.ar  116  TYR116      0.0417
    160  CE2      -11.0420    0.6360   25.5150 C.ar  116  TYR116      0.0417
    161  CZ       -10.0510    1.0980   24.6560 C.ar  116  TYR116      0.1957
    162  OH        -9.6780    2.4200   24.7150 O.3   116  TYR116     -0.2866
    163  N        -16.7580    2.6940   17.3900 N.3   121  ARG121     -0.1245
    164  CA       -16.0470    3.6700   16.5670 C.3   121  ARG121      0.1563
    165  C        -16.2950    3.5730   15.0800 C.2   121  ARG121      0.2260
    166  O        -15.7890    2.6180   14.4600 O.2   121  ARG121     -0.2867
    167  CB       -14.5370    3.4760   16.8410 C.3   121  ARG121      0.0307
    168  CG       -14.1020    3.7800   18.2550 C.3   121  ARG121      0.0489
    169  CD       -12.6750    3.2700   18.4730 C.3   121  ARG121      0.2205
    170  NE       -12.1680    3.6770   19.7860 N.pl3 121  ARG121     -0.0865
    171  CZ       -10.8890    3.6480   20.1500 C.cat 121  ARG121      0.5346
    172  NH1       -9.9510    3.2670   19.2880 N.pl3 121  ARG121      0.1354
    173  NH2      -10.5180    4.0080   21.3750 N.pl3 121  ARG121      0.1354
@<TRIPOS>BOND
     1    82    80    1
     2    81    80    1
     3    80    79    1
     4    79    76    1
     5    70    69    2
     6   166   165    2
     7    76    75    1
     8    76    77    1
     9    18    19    1
    10    86    85    2
    11    67    68    1
    12    69    75   am
    13    69    68    1
    14   165   164    1
    15    59    58    2
    16    19    20    1
    17    19    22    1
    18    83    77   am
    19    83    84    1
    20    21    20    2
    21    77    78    2
    22    68    71    1
    23    85    84    1
    24    85    91   am
    25    58    57    1
    26    92    93    1
    27    92    91    1
    28    92    95    1
    29    97    95    1
    30    96    95    1
    31    96    98    1
    32    23    22    1
    33    23    24    1
    34    93    94    2
    35    84    87    1
    36   164   167    1
    37   164   163    1
    38    71    72    1
    39   167   168    1
    40     9    10    1
    41    87    88    1
    42     1     2    1
    43    11    12    2
    44    11    10    1
    45    26    24   ar
    46    57    60    1
    47    57    56    1
    48    24    25   ar
    49    60    61    1
    50    72    74   ar
    51    72    73   ar
    52    10    13    1
    53    88    90   ar
    54    88    89   ar
    55     2     3    1
    56     2     5    1
    57     4     3    2
    58   168   169    1
    59   139   138    1
    60   169   170    1
    61    61    62    1
    62   145   146    1
    63   145   142    1
    64    13    14    1
    65   172   171    1
    66     5     6    1
    67   141   142    1
    68   146   148   ar
    69   146   147   ar
    70     7     6    1
    71   148   150   ar
    72   140   138    1
    73   170   171    2
    74    62    63    1
    75   138   135    1
    76    14    15    1
    77   147   149   ar
    78   142   143    1
    79   171   173    1
    80   150   149   ar
    81     6     8    1
    82   144   143    2
    83    55    54    2
    84   135   136    1
    85   135   134    1
    86    65    64    1
    87   136   137    2
    88   143   151   am
    89   126   124    1
    90   125   124    1
    91    63    64    2
    92    15    16    2
    93    15    17   am
    94    54    53    1
    95    64    66    1
    96   124   123    1
    97   130   129    2
    98    41    40    2
    99   134   129   am
   100   151   152    1
   101    53    52    1
   102   129   128    1
   103   118   116    1
   104    40    52   am
   105    40    39    1
   106   153   152    1
   107   153   154    2
   108    27    28    1
   109   152   155    1
   110   123   120    1
   111   117   116    1
   112    39    42    1
   113    39    38    1
   114    42    43    1
   115   116   115    2
   116    44    43   ar
   117    44    46   ar
   118    43    45   ar
   119   157   159   ar
   120   157   156   ar
   121   159   161   ar
   122    46    47   ar
   123    45    47   ar
   124    45    48   ar
   125   127   128    1
   126   127   121   am
   127    47    49   ar
   128    28    31    1
   129    28    29    1
   130   128   131    1
   131    48    50   ar
   132   120   121    1
   133   120   119    1
   134    49    51   ar
   135    50    51   ar
   136   121   122    2
   137   115   114    1
   138   155   156    1
   139   156   158   ar
   140    31    32    1
   141   161   162    1
   142   161   160   ar
   143   111   110    2
   144   131   133    1
   145   131   132    1
   146    29    30    2
   147   119   110   am
   148   114   113    1
   149   158   160   ar
   150   110   109    1
   151    32    33    1
   152    37    35    1
   153    34    35    2
   154    34    33    1
   155   112   113    1
   156   112   109    1
   157    35    36    1
   158   109   108    1
   159   108   101   am
   160   102   101    2
   161   101   100    1
   162    99   100    1
   163   100   103    1
   164   103   104    1
   165   104   105    1
   166   105   107   ar
   167   105   106   ar
