@<TRIPOS>MOLECULE
tmp/1hqcB00.pdb
 104 98 0 0 0
SMALL
GASTEIGER

@<TRIPOS>ATOM
      1  N         90.6780  117.5620  139.1000 N.3     3  ARG3       -0.1231
      2  CA        89.9900  117.5320  137.8110 C.3     3  ARG3        0.1679
      3  C         88.5520  118.0930  137.8650 C.2     3  ARG3        0.2434
      4  O         88.2050  118.8080  138.8010 O.2     3  ARG3       -0.2733
      5  CB        90.0380  116.0940  137.2780 C.3     3  ARG3        0.0321
      6  CG        91.4500  115.6450  136.8560 C.3     3  ARG3        0.0489
      7  CD        91.8720  116.1510  135.4540 C.3     3  ARG3        0.2205
      8  NE        91.7980  117.6070  135.2870 N.pl3   3  ARG3       -0.0865
      9  CZ        92.0510  118.2540  134.1480 C.cat   3  ARG3        0.5346
     10  NH1       92.4050  117.5910  133.0530 N.pl3   3  ARG3        0.1354
     11  NH2       91.9350  119.5740  134.0980 N.pl3   3  ARG3        0.1354
     12  N         87.7040  117.7940  136.8580 N.am    4  PRO4       -0.2729
     13  CA        86.3320  118.3130  136.8660 C.3     4  PRO4        0.1401
     14  C         85.3790  117.6850  137.8780 C.2     4  PRO4        0.2269
     15  O         85.4550  116.4900  138.1630 O.2     4  PRO4       -0.2865
     16  CB        85.8770  118.0750  135.4310 C.3     4  PRO4        0.0296
     17  CG        86.5750  116.8190  135.0740 C.3     4  PRO4        0.0237
     18  CD        87.9620  117.0880  135.5900 C.3     4  PRO4        0.0939
     19  N         83.1700  118.5240  132.5130 N.3    10  TYR10      -0.1227
     20  CA        83.7210  117.3180  131.8810 C.3    10  TYR10       0.1736
     21  C         84.0000  117.5400  130.4000 C.2    10  TYR10       0.2595
     22  O         83.0770  117.5920  129.5960 O.2    10  TYR10      -0.2718
     23  CB        82.7350  116.1600  132.0370 C.3    10  TYR10       0.0548
     24  CG        83.3050  114.7910  131.7360 C.ar   10  TYR10      -0.0200
     25  CD1       83.5030  113.8610  132.7550 C.ar   10  TYR10      -0.0009
     26  CD2       83.6360  114.4210  130.4330 C.ar   10  TYR10      -0.0009
     27  CE1       84.0110  112.6050  132.4820 C.ar   10  TYR10       0.0417
     28  CE2       84.1460  113.1630  130.1490 C.ar   10  TYR10       0.0417
     29  CZ        84.3330  112.2600  131.1750 C.ar   10  TYR10       0.1957
     30  OH        84.8520  111.0150  130.8920 O.3    10  TYR10      -0.2866
     31  N         85.2730  117.6460  130.0350 N.am   11  ILE11      -0.1980
     32  CA        85.6330  117.8820  128.6440 C.3    11  ILE11       0.1595
     33  C         85.2480  116.7380  127.7310 C.2    11  ILE11       0.2287
     34  O         85.7950  115.6420  127.8410 O.2    11  ILE11      -0.2864
     35  CB        87.1510  118.1330  128.4730 C.3    11  ILE11       0.0276
     36  CG1       87.5420  119.4850  129.0670 C.3    11  ILE11       0.0022
     37  CG2       87.5130  118.1340  127.0090 C.3    11  ILE11       0.0022
     38  CD1       87.4350  119.5570  130.5730 C.3    11  ILE11       0.0001
     39  N         89.3700  107.6640  130.7910 N.3    46  GLY46      -0.1225
     40  CA        89.1370  107.9180  132.1990 C.3    46  GLY46       0.1811
     41  C         87.6790  107.8130  132.5860 C.2    46  GLY46       0.2280
     42  O         86.9900  108.8260  132.6990 O.2    46  GLY46      -0.2866
     43  N         86.7180  109.2740  136.3390 N.3    49  THR49      -0.1218
     44  CA        86.4140  110.7060  136.3570 C.3    49  THR49       0.1862
     45  C         84.9210  110.9600  136.1930 C.2    49  THR49       0.2287
     46  O         84.2850  111.6330  137.0070 O.2    49  THR49      -0.2866
     47  CB        87.1240  111.4270  135.2050 C.3    49  THR49       0.1770
     48  OG1       88.4490  110.9000  135.0600 O.3    49  THR49      -0.2211
     49  CG2       87.1860  112.9270  135.4720 C.3    49  THR49       0.0375
     50  N         87.9080  111.0640  122.0550 N.3   164  TYR164     -0.1241
     51  CA        87.7630  112.5100  122.0630 C.3   164  TYR164      0.1605
     52  C         88.2460  113.0880  120.7330 C.2   164  TYR164      0.2264
     53  O         89.0940  112.5040  120.0530 O.2   164  TYR164     -0.2867
     54  CB        88.5680  113.1370  123.2030 C.3   164  TYR164      0.0534
     55  CG        88.1030  112.7720  124.5910 C.ar  164  TYR164     -0.0201
     56  CD1       88.4190  111.5430  125.1520 C.ar  164  TYR164     -0.0009
     57  CD2       87.3750  113.6780  125.3590 C.ar  164  TYR164     -0.0009
     58  CE1       88.0250  111.2250  126.4570 C.ar  164  TYR164      0.0417
     59  CE2       86.9750  113.3700  126.6640 C.ar  164  TYR164      0.0417
     60  CZ        87.3040  112.1430  127.2110 C.ar  164  TYR164      0.1957
     61  OH        86.9340  111.8370  128.5100 O.3   164  TYR164     -0.2866
     62  N         91.2980  120.2480  126.3380 N.3   172  GLY172     -0.1225
     63  CA        91.7270  119.6460  127.5870 C.3   172  GLY172      0.1811
     64  C         93.2000  119.8630  127.8760 C.2   172  GLY172      0.2280
     65  O         93.5950  120.1050  129.0190 O.2   172  GLY172     -0.2866
     66  N         93.2210  123.5370  128.7820 N.3   175  ARG175     -0.1245
     67  CA        92.5180  123.7630  130.0390 C.3   175  ARG175      0.1563
     68  C         93.3430  123.1440  131.1710 C.2   175  ARG175      0.2260
     69  O         93.4910  123.7350  132.2370 O.2   175  ARG175     -0.2867
     70  CB        91.1200  123.1330  129.9760 C.3   175  ARG175      0.0307
     71  CG        90.3230  123.1820  131.2700 C.3   175  ARG175      0.0489
     72  CD        88.9120  122.6340  131.0690 C.3   175  ARG175      0.2205
     73  NE        88.2680  122.3030  132.3390 N.pl3 175  ARG175     -0.0865
     74  CZ        88.6550  121.3120  133.1390 C.cat 175  ARG175      0.5346
     75  NH1       89.6840  120.5440  132.8030 N.pl3 175  ARG175      0.1354
     76  NH2       88.0200  121.0930  134.2830 N.pl3 175  ARG175      0.1354
     77  N         92.3750  111.0410  126.0050 N.3   200  MET200     -0.1230
     78  CA        92.6240  112.2210  126.8270 C.3   200  MET200      0.1702
     79  C         93.8330  111.8830  127.6700 C.2   200  MET200      0.2592
     80  O         94.6890  112.7220  127.9250 O.2   200  MET200     -0.2718
     81  CB        91.4380  112.4780  127.7430 C.3   200  MET200      0.0401
     82  CG        91.4510  113.8230  128.4140 C.3   200  MET200      0.0596
     83  SD        91.0740  115.0960  127.2320 S.3   200  MET200     -0.1393
     84  CE        92.2850  116.3400  127.7020 C.3   200  MET200      0.0692
     85  N         93.8770  110.6310  128.1090 N.am  201  ARG201     -0.1980
     86  CA        94.9740  110.1200  128.9150 C.3   201  ARG201      0.1597
     87  C         96.2820  110.4350  128.1980 C.2   201  ARG201      0.2287
     88  O         97.1930  111.0270  128.7690 O.2   201  ARG201     -0.2864
     89  CB        94.8060  108.6060  129.0900 C.3   201  ARG201      0.0334
     90  CG        95.9420  107.8780  129.7910 C.3   201  ARG201      0.0492
     91  CD        95.5290  106.4410  130.0890 C.3   201  ARG201      0.2205
     92  NE        94.3380  106.3940  130.9400 N.pl3 201  ARG201     -0.0865
     93  CZ        93.6670  105.2850  131.2440 C.cat 201  ARG201      0.5346
     94  NH1       94.0610  104.1110  130.7660 N.pl3 201  ARG201      0.1354
     95  NH2       92.5960  105.3510  132.0280 N.pl3 201  ARG201      0.1354
     96  N         97.2140  114.4970  127.4130 N.3   204  LYS204     -0.1245
     97  CA        97.9640  115.1820  128.4570 C.3   204  LYS204      0.1561
     98  C         99.3280  114.5340  128.6900 C.2   204  LYS204      0.2260
     99  O        100.2940  115.2160  129.0200 O.2   204  LYS204     -0.2867
    100  CB        97.1400  115.1990  129.7490 C.3   204  LYS204      0.0271
    101  CG        95.8670  116.0330  129.6270 C.3   204  LYS204      0.0035
    102  CD        94.7780  115.5970  130.5980 C.3   204  LYS204      0.0206
    103  CE        95.2040  115.7410  132.0450 C.3   204  LYS204      0.1093
    104  NZ        94.0820  115.4350  132.9730 N.3   204  LYS204     -0.1314
@<TRIPOS>BOND
     1    53    52    2
     2    52    51    1
     3    50    51    1
     4    51    54    1
     5    54    55    1
     6    55    56   ar
     7    55    57   ar
     8    56    58   ar
     9    57    59   ar
    10    77    78    1
    11    62    63    1
    12    58    60   ar
    13    59    60   ar
    14    78    79    1
    15    78    81    1
    16    37    35    1
    17    60    61    1
    18    83    84    1
    19    83    82    1
    20    96    97    1
    21    63    64    1
    22    79    80    2
    23    79    85   am
    24    33    34    2
    25    33    32    1
    26    81    82    1
    27    64    65    2
    28    85    86    1
    29    87    88    2
    30    87    86    1
    31    97    98    1
    32    97   100    1
    33    35    32    1
    34    35    36    1
    35    32    31    1
    36    98    99    2
    37    66    67    1
    38    86    89    1
    39    36    38    1
    40    89    90    1
    41    22    21    2
    42   101   100    1
    43   101   102    1
    44    90    91    1
    45    70    67    1
    46    70    71    1
    47    31    21   am
    48    67    68    1
    49    91    92    1
    50    28    26   ar
    51    28    29   ar
    52    21    20    1
    53    26    24   ar
    54   102   103    1
    55    94    93    1
    56    39    40    1
    57    30    29    1
    58    92    93    2
    59    72    71    1
    60    72    73    1
    61    68    69    2
    62    29    27   ar
    63    93    95    1
    64    24    23    1
    65    24    25   ar
    66    20    23    1
    67    20    19    1
    68   103   104    1
    69    40    41    1
    70    73    74    2
    71    27    25   ar
    72    41    42    2
    73    75    74    1
    74    10     9    1
    75    74    76    1
    76    11     9    1
    77     9     8    2
    78    48    47    1
    79    17    16    1
    80    17    18    1
    81    47    49    1
    82    47    44    1
    83     8     7    1
    84    16    13    1
    85     7     6    1
    86    18    12    1
    87    45    44    1
    88    45    46    2
    89    43    44    1
    90     6     5    1
    91    12    13    1
    92    12     3   am
    93    13    14    1
    94     5     2    1
    95     2     3    1
    96     2     1    1
    97     3     4    2
    98    14    15    2
