@<TRIPOS>MOLECULE
tmp/1hqdA00.pdb
 148 142 0 0 0
SMALL
GASTEIGER

@<TRIPOS>ATOM
      1  N         14.2960   27.8800   21.8080 N.3    17  LEU17      -0.1231
      2  CA        14.6810   28.7890   22.8870 C.3    17  LEU17       0.1693
      3  C         15.0200   28.0320   24.1730 C.2    17  LEU17       0.2592
      4  O         14.3730   27.0420   24.5010 O.2    17  LEU17      -0.2718
      5  CB        13.5510   29.7910   23.1450 C.3    17  LEU17       0.0284
      6  CG        13.7760   30.8850   24.1950 C.3    17  LEU17       0.0019
      7  CD1       13.5190   32.2450   23.5720 C.3    17  LEU17       0.0001
      8  CD2       12.8470   30.6660   25.3710 C.3    17  LEU17       0.0001
      9  N         16.0340   28.5240   24.8870 N.am   18  THR18      -0.1953
     10  CA        16.5590   27.9510   26.1390 C.3    18  THR18       0.1897
     11  C         17.4150   26.7340   25.8390 C.2    18  THR18       0.2313
     12  O         18.1320   26.2370   26.7060 O.2    18  THR18      -0.2863
     13  CB        15.4590   27.4770   27.1450 C.3    18  THR18       0.1794
     14  OG1       14.9390   26.2070   26.7320 O.3    18  THR18      -0.2208
     15  CG2       14.3300   28.4860   27.2440 C.3    18  THR18       0.0378
     16  N         22.3080   20.2240   27.5150 N.3    23  TYR23      -0.1241
     17  CA        22.1750   21.0790   28.6980 C.3    23  TYR23       0.1605
     18  C         23.2870   20.7970   29.7070 C.2    23  TYR23       0.2264
     19  O         23.4970   19.6530   30.1120 O.2    23  TYR23      -0.2867
     20  CB        20.8130   20.8700   29.3720 C.3    23  TYR23       0.0534
     21  CG        19.6540   21.5410   28.6670 C.ar   23  TYR23      -0.0201
     22  CD1       19.5360   22.9320   28.6430 C.ar   23  TYR23      -0.0009
     23  CD2       18.6720   20.7860   28.0220 C.ar   23  TYR23      -0.0009
     24  CE1       18.4670   23.5540   27.9920 C.ar   23  TYR23       0.0417
     25  CE2       17.6020   21.3950   27.3700 C.ar   23  TYR23       0.0417
     26  CZ        17.5040   22.7770   27.3570 C.ar   23  TYR23       0.1957
     27  OH        16.4420   23.3770   26.7120 O.3    23  TYR23      -0.2866
     28  N         19.2480   17.7740   24.5510 N.3    29  TYR29      -0.1241
     29  CA        17.9730   18.3850   24.2050 C.3    29  TYR29       0.1605
     30  C         17.0510   17.3920   23.5030 C.2    29  TYR29       0.2264
     31  O         15.8900   17.2420   23.8810 O.2    29  TYR29      -0.2867
     32  CB        18.2410   19.6030   23.3200 C.3    29  TYR29       0.0534
     33  CG        17.0230   20.3990   22.9130 C.ar   29  TYR29      -0.0201
     34  CD1       16.2750   20.0420   21.7910 C.ar   29  TYR29      -0.0009
     35  CD2       16.6680   21.5630   23.6020 C.ar   29  TYR29      -0.0009
     36  CE1       15.2080   20.8350   21.3520 C.ar   29  TYR29       0.0417
     37  CE2       15.6040   22.3620   23.1750 C.ar   29  TYR29       0.0417
     38  CZ        14.8820   21.9950   22.0450 C.ar   29  TYR29       0.1957
     39  OH        13.8700   22.8040   21.5860 O.3    29  TYR29      -0.2866
     40  N         12.8620   22.0690   16.2120 N.3    86  HIS86      -0.1226
     41  CA        11.7940   22.0160   17.2010 C.3    86  HIS86       0.1752
     42  C         11.6090   23.4240   17.7450 C.2    86  HIS86       0.2597
     43  O         12.5870   24.1180   18.0360 O.2    86  HIS86      -0.2718
     44  CB        12.1560   21.0660   18.3510 C.3    86  HIS86       0.0759
     45  CG        11.2220   21.1520   19.5220 C.ar   86  HIS86       0.0818
     46  ND1       11.6010   21.6730   20.7400 N.ar   86  HIS86      -0.2268
     47  CD2        9.9240   20.7880   19.6570 C.ar   86  HIS86       0.1154
     48  CE1       10.5780   21.6260   21.5760 C.ar   86  HIS86       0.1986
     49  NE2        9.5480   21.0940   20.9430 N.ar   86  HIS86      -0.2212
     50  N         10.3560   23.8500   17.8630 N.am   87  SER87      -0.1938
     51  CA        10.0600   25.1750   18.3890 C.3    87  SER87       0.2055
     52  C         10.7090   26.2480   17.5190 C.2    87  SER87       0.2642
     53  O         10.5680   26.2330   16.2930 O.2    87  SER87      -0.2714
     54  CB        10.6000   25.2800   19.8070 C.3    87  SER87       0.2130
     55  OG         9.7830   26.0910   20.6130 O.3    87  SER87      -0.2179
     56  N         11.4300   27.1710   18.1560 N.am   88  GLN88      -0.1976
     57  CA        12.0970   28.2460   17.4290 C.3    88  GLN88       0.1601
     58  C         13.0730   27.6460   16.4230 C.2    88  GLN88       0.2287
     59  O         13.3900   28.2640   15.4070 O.2    88  GLN88      -0.2864
     60  CB        12.8450   29.1770   18.3930 C.3    88  GLN88       0.0394
     61  CG        13.3360   30.4720   17.7450 C.3    88  GLN88       0.0908
     62  CD        14.1100   31.3780   18.7060 C.2    88  GLN88       0.2608
     63  OE1       14.5480   32.4690   18.3290 O.2    88  GLN88      -0.2717
     64  NE2       14.2830   30.9280   19.9410 N.am   88  GLN88      -0.0878
     65  N          6.4680   27.8190   16.3670 N.3   113  PRO113     -0.2116
     66  CA         5.5680   28.9750   16.3530 C.3   113  PRO113      0.1372
     67  C          5.7800   29.8630   15.1290 C.2   113  PRO113      0.2244
     68  O          6.3360   30.9560   15.2460 O.2   113  PRO113     -0.2868
     69  CB         5.9220   29.6920   17.6510 C.3   113  PRO113      0.0268
     70  CG         7.4030   29.4790   17.7280 C.3   113  PRO113      0.0207
     71  CD         7.5570   28.0120   17.3460 C.3   113  PRO113      0.0892
     72  N          3.8820   33.0210   19.5550 N.3   117  SER117     -0.1217
     73  CA         3.2560   32.3600   20.6940 C.3   117  SER117      0.1889
     74  C          2.4570   33.3200   21.5670 C.2   117  SER117      0.2288
     75  O          2.9520   34.3800   21.9450 O.2   117  SER117     -0.2866
     76  CB         4.3290   31.6800   21.5520 C.3   117  SER117      0.2089
     77  OG         3.8090   31.3130   22.8200 O.3   117  SER117     -0.2183
     78  N          1.8080   32.8710   24.4950 N.3   119  PHE119     -0.1227
     79  CA         2.4360   32.8970   25.8070 C.3   119  PHE119      0.1736
     80  C          3.5990   33.8810   25.7830 C.2   119  PHE119      0.2595
     81  O          3.9530   34.4660   26.8060 O.2   119  PHE119     -0.2718
     82  CB         2.9340   31.5130   26.2190 C.3   119  PHE119      0.0547
     83  CG         3.1880   31.3930   27.6920 C.ar  119  PHE119     -0.0202
     84  CD1        2.1360   31.4970   28.5980 C.ar  119  PHE119     -0.0042
     85  CD2        4.4740   31.2240   28.1820 C.ar  119  PHE119     -0.0042
     86  CE1        2.3620   31.4380   29.9680 C.ar  119  PHE119     -0.0003
     87  CE2        4.7070   31.1650   29.5540 C.ar  119  PHE119     -0.0003
     88  CZ         3.6500   31.2730   30.4450 C.ar  119  PHE119     -0.0000
     89  N          4.1890   34.0620   24.6070 N.am  120  ALA120     -0.1980
     90  CA         5.2880   34.9980   24.4580 C.3   120  ALA120      0.1597
     91  C          4.7110   36.3940   24.6480 C.2   120  ALA120      0.2287
     92  O          5.2990   37.2250   25.3460 O.2   120  ALA120     -0.2864
     93  CB         5.9190   34.8630   23.0730 C.3   120  ALA120      0.0319
     94  N          4.0620   36.8890   28.4680 N.3   123  VAL123     -0.1245
     95  CA         5.2690   37.1820   29.2280 C.3   123  VAL123      0.1561
     96  C          5.7900   38.5830   28.9390 C.2   123  VAL123      0.2260
     97  O          6.1950   39.3030   29.8540 O.2   123  VAL123     -0.2867
     98  CB         6.3720   36.1530   28.9210 C.3   123  VAL123      0.0252
     99  CG1        7.6550   36.5180   29.6520 C.3   123  VAL123      0.0019
    100  CG2        5.8990   34.7700   29.3290 C.3   123  VAL123      0.0019
    101  N         12.6240   36.7830   23.3820 N.3   164  LEU164     -0.1245
    102  CA        11.2250   36.8950   23.7670 C.3   164  LEU164      0.1561
    103  C         10.4270   37.6450   22.7060 C.2   164  LEU164      0.2260
    104  O          9.3450   37.2130   22.3150 O.2   164  LEU164     -0.2867
    105  CB        11.1050   37.6220   25.1080 C.3   164  LEU164      0.0270
    106  CG         9.6890   37.9570   25.5920 C.3   164  LEU164      0.0019
    107  CD1        8.8290   36.7060   25.5950 C.3   164  LEU164      0.0001
    108  CD2        9.7590   38.5740   26.9840 C.3   164  LEU164      0.0001
    109  N          9.6290   35.7510   19.5010 N.3   167  LEU167     -0.1245
    110  CA         8.5500   34.7800   19.6080 C.3   167  LEU167      0.1561
    111  C          7.1300   35.3150   19.7720 C.2   167  LEU167      0.2260
    112  O          6.1800   34.5290   19.8100 O.2   167  LEU167     -0.2867
    113  CB         8.8650   33.7970   20.7360 C.3   167  LEU167      0.0270
    114  CG        10.0820   32.9140   20.4390 C.3   167  LEU167      0.0019
    115  CD1       10.4430   32.0980   21.6670 C.3   167  LEU167      0.0001
    116  CD2        9.7730   32.0080   19.2550 C.3   167  LEU167      0.0001
    117  N          2.9580   25.9760   24.6830 N.3   266  VAL266     -0.1231
    118  CA         3.7460   27.0980   24.1800 C.3   266  VAL266      0.1692
    119  C          3.3680   27.5150   22.7560 C.2   266  VAL266      0.2591
    120  O          3.4210   28.6990   22.4170 O.2   266  VAL266     -0.2718
    121  CB         5.2610   26.7650   24.1950 C.3   266  VAL266      0.0266
    122  CG1        6.0620   27.9160   23.5990 C.3   266  VAL266      0.0020
    123  CG2        5.7190   26.4880   25.6170 C.3   266  VAL266      0.0020
    124  N          2.9880   26.5430   21.9280 N.am  267  VAL267     -0.1980
    125  CA         2.6350   26.8090   20.5330 C.3   267  VAL267      0.1595
    126  C          1.2520   26.2800   20.1660 C.2   267  VAL267      0.2287
    127  O          0.9200   25.1320   20.4540 O.2   267  VAL267     -0.2864
    128  CB         3.6860   26.1840   19.5920 C.3   267  VAL267      0.0276
    129  CG1        3.3730   26.5170   18.1320 C.3   267  VAL267      0.0022
    130  CG2        5.0780   26.6900   19.9810 C.3   267  VAL267      0.0022
    131  N          4.4850   20.6080   24.7400 N.3   286  HIS286     -0.1226
    132  CA         5.6870   21.0350   24.0310 C.3   286  HIS286      0.1752
    133  C          6.9750   20.2210   24.2210 C.2   286  HIS286      0.2595
    134  O          7.7480   20.0630   23.2770 O.2   286  HIS286     -0.2718
    135  CB         5.9800   22.5040   24.3400 C.3   286  HIS286      0.0759
    136  CG         6.9510   23.1290   23.3910 C.ar  286  HIS286      0.0818
    137  ND1        6.6270   23.4210   22.0840 N.ar  286  HIS286     -0.2268
    138  CD2        8.2460   23.4930   23.5490 C.ar  286  HIS286      0.1154
    139  CE1        7.6800   23.9420   21.4780 C.ar  286  HIS286      0.1986
    140  NE2        8.6760   23.9960   22.3450 N.ar  286  HIS286     -0.2212
    141  N          7.2190   19.7060   25.4200 N.am  287  LEU287     -0.1980
    142  CA         8.4450   18.9440   25.6530 C.3   287  LEU287      0.1596
    143  C          8.3630   17.4670   25.2770 C.2   287  LEU287      0.2287
    144  O          9.3920   16.8370   25.0310 O.2   287  LEU287     -0.2864
    145  CB         8.9020   19.0960   27.1120 C.3   287  LEU287      0.0297
    146  CG         9.3140   20.5110   27.5520 C.3   287  LEU287      0.0022
    147  CD1        9.9390   20.4520   28.9370 C.3   287  LEU287      0.0001
    148  CD2       10.3120   21.1020   26.5600 C.3   287  LEU287      0.0001
@<TRIPOS>BOND
     1    67    68    2
     2    67    66    1
     3    59    58    2
     4    40    41    1
     5    53    52    2
     6    66    65    1
     7    66    69    1
     8    65    71    1
     9    58    57    1
    10    41    42    1
    11    41    44    1
    12    71    70    1
    13    57    56    1
    14    57    60    1
    15    52    56   am
    16    52    51    1
    17    69    70    1
    18    42    50   am
    19    42    43    2
    20    61    60    1
    21    61    62    1
    22    50    51    1
    23   129   128    1
    24    63    62    2
    25    44    45    1
    26    51    54    1
    27    62    64   am
    28   116   114    1
    29   109   110    1
    30    45    47   ar
    31    45    46   ar
    32    72    73    1
    33   128   130    1
    34   128   125    1
    35   110   111    1
    36   110   113    1
    37    47    49   ar
    38   111   112    2
    39    54    55    1
    40   126   127    2
    41   126   125    1
    42   114   113    1
    43   114   115    1
    44   125   124    1
    45    73    76    1
    46    73    74    1
    47    46    48   ar
    48    49    48   ar
    49    36    34   ar
    50    36    38   ar
    51   139   137   ar
    52   139   140   ar
    53    76    77    1
    54    74    75    2
    55    39    38    1
    56    34    33   ar
    57     1     2    1
    58   124   119   am
    59    38    37   ar
    60   137   136   ar
    61   104   103    2
    62   140   138   ar
    63   120   119    2
    64   103   102    1
    65   119   118    1
    66     2     5    1
    67     2     3    1
    68    33    32    1
    69    33    35   ar
    70    93    90    1
    71     5     6    1
    72    37    35   ar
    73   134   133    2
    74    32    29    1
    75   101   102    1
    76   136   138   ar
    77   136   135    1
    78    30    31    2
    79    30    29    1
    80     7     6    1
    81   122   121    1
    82   102   105    1
    83   132   133    1
    84   132   135    1
    85   132   131    1
    86     3     4    2
    87     3     9   am
    88   118   121    1
    89   118   117    1
    90   121   123    1
    91     6     8    1
    92    29    28    1
    93   133   141   am
    94    90    89    1
    95    90    91    1
    96    78    79    1
    97    89    80   am
    98    91    92    2
    99     9    10    1
   100   144   143    2
   101   105   106    1
   102   143   142    1
   103   141   142    1
   104   106   107    1
   105   106   108    1
   106   142   145    1
   107    80    79    1
   108    80    81    2
   109    79    82    1
   110    11    10    1
   111    11    12    2
   112    10    13    1
   113    82    83    1
   114   148   146    1
   115    27    26    1
   116    14    13    1
   117   145   146    1
   118    13    15    1
   119    26    25   ar
   120    26    24   ar
   121    25    23   ar
   122    16    17    1
   123   146   147    1
   124    83    85   ar
   125    83    84   ar
   126    24    22   ar
   127    23    21   ar
   128    85    87   ar
   129    94    95    1
   130    84    86   ar
   131    22    21   ar
   132    21    20    1
   133    17    20    1
   134    17    18    1
   135    98    95    1
   136    98   100    1
   137    98    99    1
   138    96    95    1
   139    96    97    2
   140    87    88   ar
   141    18    19    2
   142    86    88   ar
