@<TRIPOS>MOLECULE
tmp/1hqfB00.pdb
 142 130 0 0 0
SMALL
GASTEIGER

@<TRIPOS>ATOM
      1  N         -9.3620   -0.4250    2.5140 N.3    96  HIS96      -0.1241
      2  CA        -9.3680   -0.3180    1.0610 C.3    96  HIS96       0.1621
      3  C         -8.6390   -1.4220    0.3080 C.2    96  HIS96       0.2264
      4  O         -8.4840   -1.3390   -0.9110 O.2    96  HIS96      -0.2867
      5  CB        -8.7880    1.0500    0.6720 C.3    96  HIS96       0.0745
      6  CG        -9.3020    1.5990   -0.6250 C.ar   96  HIS96       0.0817
      7  ND1       -9.2350    2.9440   -0.9340 N.ar   96  HIS96      -0.2268
      8  CD2       -9.8480    0.9920   -1.7060 C.ar   96  HIS96       0.1154
      9  CE1       -9.7160    3.1370   -2.1460 C.ar   96  HIS96       0.1986
     10  NE2      -10.0950    1.9690   -2.6390 N.ar   96  HIS96      -0.2212
     11  N         -9.4480    8.7750   -3.4300 N.3   119  ASP119     -0.1239
     12  CA        -8.7520    8.4070   -2.1990 C.3   119  ASP119      0.1674
     13  C         -7.7930    9.5660   -1.9950 C.2   119  ASP119      0.2266
     14  O         -7.4770   10.2820   -2.9580 O.2   119  ASP119     -0.2867
     15  CB        -7.9620    7.1050   -2.4470 C.3   119  ASP119      0.1410
     16  CG        -7.4320    6.4740   -1.1910 C.2   119  ASP119      0.3668
     17  OD1       -6.7190    7.1430   -0.4270 O.co2 119  ASP119     -0.2456
     18  OD2       -7.7070    5.2800   -0.9620 O.co2 119  ASP119     -0.2456
     19  N         -4.8960    8.9690   -0.8690 N.3   121  HIS121     -0.1241
     20  CA        -3.7050    8.2320   -1.2500 C.3   121  HIS121      0.1621
     21  C         -3.8440    7.4660   -2.5520 C.2   121  HIS121      0.2264
     22  O         -4.9550    7.0840   -2.9490 O.2   121  HIS121     -0.2867
     23  CB        -3.3620    7.2320   -0.1540 C.3   121  HIS121      0.0745
     24  CG        -3.6920    7.7210    1.2110 C.ar  121  HIS121      0.0817
     25  ND1       -4.9110    7.4830    1.8090 N.ar  121  HIS121     -0.2268
     26  CD2       -3.0100    8.5360    2.0480 C.ar  121  HIS121      0.1154
     27  CE1       -4.9720    8.1420    2.9540 C.ar  121  HIS121      0.1986
     28  NE2       -3.8310    8.7890    3.1220 N.ar  121  HIS121     -0.2212
     29  N         -2.1100    4.6450   -2.9210 N.3   123  ASP123     -0.1239
     30  CA        -2.1340    3.2750   -2.4060 C.3   123  ASP123      0.1674
     31  C         -1.5080    2.3280   -3.4450 C.2   123  ASP123      0.2266
     32  O         -1.7830    1.1240   -3.4620 O.2   123  ASP123     -0.2867
     33  CB        -3.5900    2.8240   -2.1060 C.3   123  ASP123      0.1410
     34  CG        -4.3310    3.7670   -1.1490 C.2   123  ASP123      0.3668
     35  OD1       -3.6840    4.3480   -0.2470 O.co2 123  ASP123     -0.2456
     36  OD2       -5.5670    3.9130   -1.3000 O.co2 123  ASP123     -0.2456
     37  N          1.6590    1.4950   -3.7180 N.3   125  ASN125     -0.1240
     38  CA         2.9330    0.9900   -3.2250 C.3   125  ASN125      0.1653
     39  C          2.9860   -0.5280   -3.3430 C.2   125  ASN125      0.2266
     40  O          1.9610   -1.2080   -3.3480 O.2   125  ASN125     -0.2867
     41  CB         3.1690    1.3890   -1.7590 C.3   125  ASN125      0.1155
     42  CG         3.8400    2.7540   -1.6160 C.2   125  ASN125      0.2627
     43  OD1        4.7100    3.1200   -2.4100 O.2   125  ASN125     -0.2716
     44  ND2        3.4480    3.5030   -0.5880 N.am  125  ASN125     -0.0877
     45  N          6.2960    0.0920    0.2090 N.3   130  THR130     -0.1203
     46  CA         5.6440    0.2800    1.5020 C.3   130  THR130      0.1994
     47  C          6.5650    0.2700    2.7070 C.2   130  THR130      0.2619
     48  O          7.4350   -0.5830    2.8220 O.2   130  THR130     -0.2717
     49  CB         4.5850   -0.7920    1.7700 C.3   130  THR130      0.1784
     50  OG1        5.0760   -2.0620    1.3320 O.3   130  THR130     -0.2211
     51  CG2        3.2810   -0.4530    1.0690 C.3   130  THR130      0.0376
     52  N          6.3600    1.2350    3.6000 N.am  131  SER131     -0.1937
     53  CA         7.1150    1.3290    4.8390 C.3   131  SER131      0.2055
     54  C          6.1820    0.7130    5.8550 C.2   131  SER131      0.2643
     55  O          6.1660    1.0910    7.0260 O.2   131  SER131     -0.2714
     56  CB         7.3980    2.7800    5.2220 C.3   131  SER131      0.2130
     57  OG         8.5320    3.2830    4.5460 O.3   131  SER131     -0.2179
     58  N          5.3800   -0.2280    5.3720 N.am  132  SER132     -0.1949
     59  CA         4.4190   -0.9350    6.2040 C.3   132  SER132      0.1924
     60  C          3.8350   -2.0620    5.3680 C.2   132  SER132      0.2314
     61  O          3.6970   -1.9350    4.1500 O.2   132  SER132     -0.2863
     62  CB         3.3090    0.0160    6.6530 C.3   132  SER132      0.2116
     63  OG         2.6000    0.5260    5.5250 O.3   132  SER132     -0.2180
     64  N          0.9610   -2.9970    5.3780 N.3   134  ASN134     -0.1240
     65  CA        -0.4550   -2.6750    5.2850 C.3   134  ASN134      0.1653
     66  C         -0.8840   -2.6820    3.8170 C.2   134  ASN134      0.2266
     67  O         -0.8230   -1.6670    3.1150 O.2   134  ASN134     -0.2867
     68  CB        -0.6740   -1.3040    5.9160 C.3   134  ASN134      0.1155
     69  CG         0.1210   -1.1300    7.2060 C.2   134  ASN134      0.2627
     70  OD1        1.2480   -1.6250    7.3340 O.2   134  ASN134     -0.2716
     71  ND2       -0.4550   -0.4160    8.1610 N.am  134  ASN134     -0.0877
     72  N         -3.4570   -2.3240    2.4740 N.3   136  HIS136     -0.1226
     73  CA        -4.5260   -1.3960    2.0980 C.3   136  HIS136      0.1752
     74  C         -3.8910   -0.2270    1.3530 C.2   136  HIS136      0.2596
     75  O         -4.5790    0.6950    0.9100 O.2   136  HIS136     -0.2718
     76  CB        -5.3070   -0.8870    3.3280 C.3   136  HIS136      0.0759
     77  CG        -4.5810    0.1440    4.1470 C.ar  136  HIS136      0.0818
     78  ND1       -5.1700    0.7800    5.2180 N.ar  136  HIS136     -0.2268
     79  CD2       -3.3260    0.6460    4.0530 C.ar  136  HIS136      0.1154
     80  CE1       -4.3080    1.6330    5.7490 C.ar  136  HIS136      0.1986
     81  NE2       -3.1830    1.5720    5.0610 N.ar  136  HIS136     -0.2212
     82  N         -2.5650   -0.2780    1.2350 N.am  137  GLY137     -0.1957
     83  CA        -1.8250    0.7640    0.5470 C.3   137  GLY137      0.1869
     84  C         -1.0520    0.2140   -0.6410 C.2   137  GLY137      0.2309
     85  O         -0.0050    0.7510   -1.0140 O.2   137  GLY137     -0.2863
     86  N         -1.6920   12.8500   -0.2910 N.3   176  ASP176     -0.1239
     87  CA        -0.7060   12.2590    0.6150 C.3   176  ASP176      0.1674
     88  C         -0.0370   11.0490   -0.0580 C.2   176  ASP176      0.2266
     89  O         -0.3040    9.8810    0.2700 O.2   176  ASP176     -0.2867
     90  CB        -1.3670   11.8610    1.9420 C.3   176  ASP176      0.1410
     91  CG        -0.4760   10.9620    2.7930 C.2   176  ASP176      0.3668
     92  OD1        0.7640   11.1110    2.7130 O.co2 176  ASP176     -0.2456
     93  OD2       -1.0230   10.1170    3.5430 O.co2 176  ASP176     -0.2456
     94  N          3.3060    8.7880   -1.1260 N.3   178  ASP178     -0.1239
     95  CA         4.6600    8.3610   -0.7750 C.3   178  ASP178      0.1674
     96  C          5.6330    8.4350   -1.9470 C.2   178  ASP178      0.2266
     97  O          5.2340    8.3280   -3.1090 O.2   178  ASP178     -0.2867
     98  CB         4.6450    6.9350   -0.2270 C.3   178  ASP178      0.1410
     99  CG         4.1230    6.8660    1.1890 C.2   178  ASP178      0.3668
    100  OD1        4.7460    7.4850    2.0780 O.co2 178  ASP178     -0.2456
    101  OD2        3.0900    6.1980    1.4190 O.co2 178  ASP178     -0.2456
    102  N          5.5370    5.6880   -4.4890 N.3   181  GLU181     -0.1245
    103  CA         4.2960    5.8390   -5.2210 C.3   181  GLU181      0.1567
    104  C          4.3870    6.9240   -6.2980 C.2   181  GLU181      0.2260
    105  O          3.9220    6.7180   -7.4240 O.2   181  GLU181     -0.2867
    106  CB         3.1520    6.1310   -4.2490 C.3   181  GLU181      0.0388
    107  CG         2.4810    4.8830   -3.7200 C.3   181  GLU181      0.1160
    108  CD         1.6440    5.1550   -2.4990 C.2   181  GLU181      0.3649
    109  OE1        2.2360    5.6080   -1.5010 O.co2 181  GLU181     -0.2457
    110  OE2        0.4130    4.9200   -2.5270 O.co2 181  GLU181     -0.2457
    111  N        -12.9790    6.0990   -1.6100 N.3   227  ASP227     -0.1239
    112  CA       -12.3700    5.9900   -0.2960 C.3   227  ASP227      0.1674
    113  C        -12.7760    7.1390    0.5880 C.2   227  ASP227      0.2266
    114  O        -12.1520    8.1840    0.5660 O.2   227  ASP227     -0.2867
    115  CB       -10.8540    5.9690   -0.4180 C.3   227  ASP227      0.1410
    116  CG       -10.1730    5.9670    0.9140 C.2   227  ASP227      0.3668
    117  OD1      -10.8630    6.0160    1.9560 O.co2 227  ASP227     -0.2456
    118  OD2       -8.9270    5.9290    0.9210 O.co2 227  ASP227     -0.2456
    119  N        -12.0410    8.5160    2.8580 N.3   229  ASP229     -0.1239
    120  CA       -11.0050    9.4420    3.3360 C.3   229  ASP229      0.1674
    121  C        -10.5790   10.5310    2.3330 C.2   229  ASP229      0.2266
    122  O         -9.9520   11.4970    2.7140 O.2   229  ASP229     -0.2867
    123  CB        -9.7600    8.6670    3.8260 C.3   229  ASP229      0.1410
    124  CG        -8.8730    8.1570    2.6880 C.2   229  ASP229      0.3668
    125  OD1       -8.5920    8.9210    1.7240 O.co2 229  ASP229     -0.2456
    126  OD2       -8.4260    6.9860    2.7850 O.co2 229  ASP229     -0.2456
    127  N         -6.6050    7.0240    8.0530 N.3   241  THR241     -0.1218
    128  CA        -5.7040    8.1470    7.8170 C.3   241  THR241      0.1862
    129  C         -6.3950    9.4260    7.3800 C.2   241  THR241      0.2287
    130  O         -6.9410    9.4720    6.2770 O.2   241  THR241     -0.2866
    131  CB        -4.7160    7.9180    6.6740 C.3   241  THR241      0.1770
    132  OG1       -4.5660    6.5210    6.4040 O.3   241  THR241     -0.2211
    133  CG2       -3.3840    8.5790    7.0140 C.3   241  THR241      0.0375
    134  N        -12.8310    2.4510    3.7560 N.3   272  GLU272     -0.1245
    135  CA       -12.1540    3.1960    4.8400 C.3   272  GLU272      0.1567
    136  C        -12.9700    3.8670    5.9360 C.2   272  GLU272      0.2260
    137  O        -12.4790    4.7890    6.5890 O.2   272  GLU272     -0.2867
    138  CB       -11.1880    4.2520    4.2610 C.3   272  GLU272      0.0388
    139  CG        -9.9770    3.7080    3.4820 C.3   272  GLU272      0.1160
    140  CD        -9.1530    2.7130    4.2680 C.2   272  GLU272      0.3649
    141  OE1       -9.1950    2.7180    5.5160 O.co2 272  GLU272     -0.2457
    142  OE2       -8.4600    1.8920    3.6490 O.co2 272  GLU272     -0.2457
@<TRIPOS>BOND
     1   105   104    2
     2   104   103    1
     3   103   102    1
     4   103   106    1
     5   106   107    1
     6   107   108    1
     7    37    38    1
     8    32    31    2
     9    31    30    1
    10    11    12    1
    11    40    39    2
    12    39    38    1
    13    38    41    1
    14    97    96    2
    15    14    13    2
    16    22    21    2
    17    29    30    1
    18    10     9   ar
    19    10     8   ar
    20    21    20    1
    21   110   108   ar
    22   108   109   ar
    23    15    12    1
    24    15    16    1
    25    43    42    2
    26    30    33    1
    27    12    13    1
    28     9     7   ar
    29    33    34    1
    30    96    95    1
    31    41    42    1
    32     8     6   ar
    33    42    44   am
    34   111   112    1
    35    36    34   ar
    36    20    19    1
    37    20    23    1
    38    16    18   ar
    39    16    17   ar
    40    34    35   ar
    41    94    95    1
    42    85    84    2
    43     7     6   ar
    44     4     3    2
    45    95    98    1
    46    84    83    1
    47     6     5    1
    48   115   112    1
    49   115   116    1
    50   112   113    1
    51    86    87    1
    52    98    99    1
    53    23    24    1
    54    88    89    2
    55    88    87    1
    56    45    46    1
    57     3     2    1
    58    83    82    1
    59   114   113    2
    60    87    90    1
    61     5     2    1
    62    75    74    2
    63   116   118   ar
    64   116   117   ar
    65     2     1    1
    66    51    49    1
    67    99   101   ar
    68    99   100   ar
    69    24    25   ar
    70    24    26   ar
    71    82    74   am
    72    50    49    1
    73    74    73    1
    74    46    49    1
    75    46    47    1
    76   125   124   ar
    77    25    27   ar
    78    90    91    1
    79    26    28   ar
    80    73    72    1
    81    73    76    1
    82   121   122    2
    83   121   120    1
    84   124   126   ar
    85   124   123    1
    86    47    48    2
    87    47    52   am
    88    92    91   ar
    89    91    93   ar
    90   119   120    1
    91    27    28   ar
    92    67    66    2
    93    76    77    1
    94   120   123    1
    95   139   138    1
    96   139   140    1
    97    52    53    1
    98   142   140   ar
    99   134   135    1
   100    66    65    1
   101    79    77   ar
   102    79    81   ar
   103    77    78   ar
   104    61    60    2
   105   138   135    1
   106   140   141   ar
   107    57    56    1
   108    53    56    1
   109    53    54    1
   110   135   136    1
   111    81    80   ar
   112    78    80   ar
   113    65    64    1
   114    65    68    1
   115    60    59    1
   116    58    54   am
   117    58    59    1
   118    63    62    1
   119    54    55    2
   120    68    69    1
   121   136   137    2
   122    59    62    1
   123   130   129    2
   124   132   131    1
   125   131   133    1
   126   131   128    1
   127    69    70    2
   128    69    71   am
   129   129   128    1
   130   128   127    1
