@<TRIPOS>MOLECULE
tmp/1hqhA00.pdb
 145 134 0 0 0
SMALL
GASTEIGER

@<TRIPOS>ATOM
      1  N         37.7950   33.0270  -11.2950 N.3    96  HIS96      -0.1241
      2  CA        38.1990   33.1680   -9.9090 C.3    96  HIS96       0.1621
      3  C         39.6930   33.1800   -9.6180 C.2    96  HIS96       0.2264
      4  O         40.1000   33.4290   -8.4780 O.2    96  HIS96      -0.2867
      5  CB        37.5320   32.0800   -9.0750 C.3    96  HIS96       0.0745
      6  CG        37.3600   32.4560   -7.6430 C.ar   96  HIS96       0.0817
      7  ND1       36.6960   31.6560   -6.7400 N.ar   96  HIS96      -0.2268
      8  CD2       37.7390   33.5630   -6.9620 C.ar   96  HIS96       0.1154
      9  CE1       36.6710   32.2550   -5.5640 C.ar   96  HIS96       0.1986
     10  NE2       37.3000   33.4130   -5.6700 N.ar   96  HIS96      -0.2212
     11  N         33.5940   25.2140   -4.9270 N.3   121  HIS121     -0.1241
     12  CA        34.9270   24.6190   -4.9320 C.3   121  HIS121      0.1621
     13  C         35.8810   25.3360   -3.9770 C.2   121  HIS121      0.2264
     14  O         35.6610   26.4960   -3.6260 O.2   121  HIS121     -0.2867
     15  CB        35.5110   24.7030   -6.3360 C.3   121  HIS121      0.0745
     16  CG        34.4990   24.5130   -7.4230 C.ar  121  HIS121      0.0817
     17  ND1       33.7250   25.5450   -7.9110 N.ar  121  HIS121     -0.2268
     18  CD2       34.1400   23.4100   -8.1250 C.ar  121  HIS121      0.1154
     19  CE1       32.9370   25.0880   -8.8700 C.ar  121  HIS121      0.1986
     20  NE2       33.1700   23.7950   -9.0200 N.ar  121  HIS121     -0.2212
     21  N         39.3620   25.4930   -4.6560 N.3   123  ASP123     -0.1239
     22  CA        40.4040   26.0890   -5.4980 C.3   123  ASP123      0.1674
     23  C         41.7490   26.1350   -4.7950 C.2   123  ASP123      0.2266
     24  O         42.5830   26.9950   -5.0730 O.2   123  ASP123     -0.2867
     25  CB        39.9890   27.5000   -5.9390 C.3   123  ASP123      0.1410
     26  CG        38.5540   27.5560   -6.4630 C.2   123  ASP123      0.3668
     27  OD1       38.1020   26.5690   -7.0860 O.co2 123  ASP123     -0.2456
     28  OD2       37.8870   28.5940   -6.2590 O.co2 123  ASP123     -0.2456
     29  N         44.0570   23.6930   -4.9120 N.3   125  ASN125     -0.1240
     30  CA        44.9940   22.7690   -5.5360 C.3   125  ASN125      0.1653
     31  C         46.2910   23.5230   -5.8000 C.2   125  ASN125      0.2266
     32  O         46.2890   24.7440   -5.9760 O.2   125  ASN125     -0.2867
     33  CB        44.4660   22.2710   -6.8820 C.3   125  ASN125      0.1155
     34  CG        43.3580   21.2680   -6.7400 C.2   125  ASN125      0.2627
     35  OD1       43.5180   20.2490   -6.0710 O.2   125  ASN125     -0.2716
     36  ND2       42.2250   21.5360   -7.3850 N.am  125  ASN125     -0.0877
     37  N         46.3080   19.6100   -9.1690 N.3   130  THR130     -0.1203
     38  CA        45.4010   19.8320  -10.2910 C.3   130  THR130      0.1994
     39  C         45.3990   18.7350  -11.3320 C.2   130  THR130      0.2619
     40  O         46.4090   18.0830  -11.5590 O.2   130  THR130     -0.2717
     41  CB        45.7240   21.1370  -11.0230 C.3   130  THR130      0.1784
     42  OG1       47.0920   21.4800  -10.7870 O.3   130  THR130     -0.2211
     43  CG2       44.8180   22.2620  -10.5490 C.3   130  THR130      0.0376
     44  N         44.2420   18.5380  -11.9530 N.am  131  SER131     -0.1937
     45  CA        44.0870   17.5430  -13.0010 C.3   131  SER131      0.2055
     46  C         43.8740   18.3460  -14.2640 C.2   131  SER131      0.2643
     47  O         43.6400   17.8000  -15.3390 O.2   131  SER131     -0.2714
     48  CB        42.8780   16.6510  -12.7390 C.3   131  SER131      0.2130
     49  OG        43.0970   15.8300  -11.6080 O.3   131  SER131     -0.2179
     50  N         43.9540   19.6610  -14.1030 N.am  132  SER132     -0.1949
     51  CA        43.8010   20.6100  -15.1980 C.3   132  SER132      0.1924
     52  C         44.7390   21.7670  -14.8800 C.2   132  SER132      0.2314
     53  O         45.0630   22.0160  -13.7130 O.2   132  SER132     -0.2863
     54  CB        42.3680   21.1320  -15.2700 C.3   132  SER132      0.2116
     55  OG        42.0680   21.9470  -14.1480 O.3   132  SER132     -0.2180
     56  N         43.9780   24.6540  -15.1910 N.3   134  ASN134     -0.1240
     57  CA        43.0760   25.6960  -14.7160 C.3   134  ASN134      0.1653
     58  C         43.5210   26.3050  -13.3950 C.2   134  ASN134      0.2266
     59  O         43.3000   25.7400  -12.3190 O.2   134  ASN134     -0.2867
     60  CB        41.6590   25.1390  -14.5670 C.3   134  ASN134      0.1155
     61  CG        41.2570   24.2490  -15.7260 C.2   134  ASN134      0.2627
     62  OD1       41.7110   24.4310  -16.8570 O.2   134  ASN134     -0.2716
     63  ND2       40.3870   23.2870  -15.4510 N.am  134  ASN134     -0.0877
     64  N         42.3090   28.8960  -12.1070 N.3   136  HIS136     -0.1226
     65  CA        41.1540   29.3740  -11.3620 C.3   136  HIS136      0.1752
     66  C         40.7760   28.3640  -10.2780 C.2   136  HIS136      0.2596
     67  O         39.8690   28.6030   -9.4760 O.2   136  HIS136     -0.2718
     68  CB        39.9660   29.6280  -12.2990 C.3   136  HIS136      0.0759
     69  CG        39.1540   28.4060  -12.6130 C.ar  136  HIS136      0.0818
     70  ND1       37.8560   28.4780  -13.0720 N.ar  136  HIS136     -0.2268
     71  CD2       39.4520   27.0890  -12.5390 C.ar  136  HIS136      0.1154
     72  CE1       37.3900   27.2590  -13.2650 C.ar  136  HIS136      0.1986
     73  NE2       38.3380   26.3990  -12.9480 N.ar  136  HIS136     -0.2212
     74  N         41.4770   27.2340  -10.2740 N.am  137  GLY137     -0.1957
     75  CA        41.2180   26.2030   -9.2910 C.3   137  GLY137      0.1869
     76  C         42.4250   25.9840   -8.4050 C.2   137  GLY137      0.2309
     77  O         42.6620   24.8790   -7.9260 O.2   137  GLY137     -0.2863
     78  N         32.1540   20.1670   -4.1390 N.3   176  ASP176     -0.1239
     79  CA        32.8060   19.4290   -5.2270 C.3   176  ASP176      0.1674
     80  C         34.3240   19.5630   -5.0960 C.2   176  ASP176      0.2266
     81  O         34.9840   20.2720   -5.8630 O.2   176  ASP176     -0.2867
     82  CB        32.3260   19.9530   -6.5820 C.3   176  ASP176      0.1410
     83  CG        33.0410   19.2990   -7.7530 C.2   176  ASP176      0.3668
     84  OD1       33.4070   18.1080   -7.6450 O.co2 176  ASP176     -0.2456
     85  OD2       33.2180   19.9860   -8.7890 O.co2 176  ASP176     -0.2456
     86  N         38.2270   18.0620   -4.8880 N.3   178  ASP178     -0.1239
     87  CA        39.1600   17.0940   -5.4510 C.3   178  ASP178      0.1674
     88  C         39.9410   16.4260   -4.3350 C.2   178  ASP178      0.2266
     89  O         40.2660   17.0620   -3.3280 O.2   178  ASP178     -0.2867
     90  CB        40.1370   17.7800   -6.4020 C.3   178  ASP178      0.1410
     91  CG        39.4650   18.2620   -7.6630 C.2   178  ASP178      0.3668
     92  OD1       38.7550   17.4490   -8.3010 O.co2 178  ASP178     -0.2456
     93  OD2       39.6440   19.4500   -8.0170 O.co2 178  ASP178     -0.2456
     94  N         42.8130   18.4290   -2.8750 N.3   181  GLU181     -0.1245
     95  CA        42.3040   19.5390   -2.0980 C.3   181  GLU181      0.1567
     96  C         41.7930   19.0960   -0.7410 C.2   181  GLU181      0.2260
     97  O         42.0850   19.7430    0.2620 O.2   181  GLU181     -0.2867
     98  CB        41.2000   20.2460   -2.8670 C.3   181  GLU181      0.0388
     99  CG        41.7340   21.2270   -3.8710 C.3   181  GLU181      0.1160
    100  CD        40.6430   21.8690   -4.6710 C.2   181  GLU181      0.3649
    101  OE1       40.1150   21.2060   -5.5870 O.co2 181  GLU181     -0.2457
    102  OE2       40.3050   23.0320   -4.3740 O.co2 181  GLU181     -0.2457
    103  N         32.1320   33.2030   -5.0550 N.3   227  ASP227     -0.1239
    104  CA        32.1080   32.5410   -6.3480 C.3   227  ASP227      0.1674
    105  C         30.6560   32.2550   -6.6980 C.2   227  ASP227      0.2266
    106  O         30.0170   31.4370   -6.0480 O.2   227  ASP227     -0.2867
    107  CB        32.8780   31.2180   -6.3370 C.3   227  ASP227      0.1410
    108  CG        32.9190   30.5760   -7.7210 C.2   227  ASP227      0.3668
    109  OD1       32.0630   30.9620   -8.5590 O.co2 227  ASP227     -0.2456
    110  OD2       33.7870   29.7010   -7.9750 O.co2 227  ASP227     -0.2456
    111  N         29.3210   30.3630   -8.5730 N.3   229  ASP229     -0.1239
    112  CA        28.9180   28.9840   -8.7620 C.3   229  ASP229      0.1674
    113  C         28.4740   28.4450   -7.3990 C.2   229  ASP229      0.2266
    114  O         27.7750   27.4270   -7.3060 O.2   229  ASP229     -0.2867
    115  CB        30.0580   28.1340   -9.3780 C.3   229  ASP229      0.1410
    116  CG        31.1970   27.8240   -8.4040 C.2   229  ASP229      0.3668
    117  OD1       30.9330   27.4130   -7.2500 O.co2 229  ASP229     -0.2456
    118  OD2       32.3730   27.9660   -8.8050 O.co2 229  ASP229     -0.2456
    119  N         27.5050   29.7490  -15.3040 N.3   239  THR239     -0.1203
    120  CA        28.8630   29.6730  -14.7640 C.3   239  THR239      0.1994
    121  C         29.6960   28.6020  -15.4260 C.2   239  THR239      0.2618
    122  O         29.2080   27.8270  -16.2500 O.2   239  THR239     -0.2717
    123  CB        28.9130   29.3290  -13.2740 C.3   239  THR239      0.1784
    124  OG1       27.7940   29.9140  -12.6010 O.3   239  THR239     -0.2211
    125  CG2       30.2120   29.8580  -12.6590 C.3   239  THR239      0.0376
    126  N         30.9620   28.5540  -15.0180 N.am  240  GLY240     -0.1942
    127  CA        31.9000   27.5860  -15.5480 C.3   240  GLY240      0.2014
    128  C         31.5320   26.2110  -15.0690 C.2   240  GLY240      0.2639
    129  O         31.3910   25.3000  -15.8640 O.2   240  GLY240     -0.2714
    130  N         31.3410   26.0610  -13.7700 N.am  241  THR241     -0.1950
    131  CA        31.0090   24.7530  -13.2390 C.3   241  THR241      0.1897
    132  C         29.7490   24.6260  -12.4210 C.2   241  THR241      0.2313
    133  O         29.8040   24.6990  -11.1920 O.2   241  THR241     -0.2863
    134  CB        32.0930   24.2150  -12.3290 C.3   241  THR241      0.1794
    135  OG1       33.3020   24.9550  -12.5210 O.3   241  THR241     -0.2208
    136  CG2       32.2880   22.7230  -12.5980 C.3   241  THR241      0.0378
    137  N         33.4020   34.6490  -11.4860 N.3   272  GLU272     -0.1245
    138  CA        32.8690   33.5720  -12.3210 C.3   272  GLU272      0.1567
    139  C         31.6130   33.7310  -13.1720 C.2   272  GLU272      0.2260
    140  O         31.2310   32.7780  -13.8530 O.2   272  GLU272     -0.2867
    141  CB        32.7290   32.3080  -11.4790 C.3   272  GLU272      0.0388
    142  CG        34.0570   31.6910  -11.1090 C.3   272  GLU272      0.1160
    143  CD        34.7900   31.1490  -12.3170 C.2   272  GLU272      0.3649
    144  OE1       34.2830   31.3480  -13.4440 O.co2 272  GLU272     -0.2457
    145  OE2       35.8660   30.5240  -12.1460 O.co2 272  GLU272     -0.2457
@<TRIPOS>BOND
     1    62    61    2
     2   122   121    2
     3   129   128    2
     4    61    63   am
     5    61    60    1
     6   127   128    1
     7   127   126    1
     8   121   126   am
     9   121   120    1
    10    47    46    2
    11   119   120    1
    12    54    51    1
    13    54    55    1
    14    51    52    1
    15    51    50    1
    16    56    57    1
    17   128   130   am
    18    52    53    2
    19   120   123    1
    20    57    60    1
    21    57    58    1
    22    46    50   am
    23    46    45    1
    24   140   139    2
    25   130   131    1
    26   144   143   ar
    27    58    59    2
    28   123   125    1
    29   123   124    1
    30    72    70   ar
    31    72    73   ar
    32   131   132    1
    33   131   134    1
    34   139   138    1
    35    70    69   ar
    36    45    48    1
    37    45    44    1
    38    73    71   ar
    39    48    49    1
    40    69    71   ar
    41    69    68    1
    42   136   134    1
    43   135   134    1
    44   132   133    2
    45   138   137    1
    46   138   141    1
    47   143   145   ar
    48   143   142    1
    49    68    65    1
    50    64    65    1
    51    44    39   am
    52    40    39    2
    53   141   142    1
    54    65    66    1
    55    39    38    1
    56     1     2    1
    57    41    42    1
    58    41    43    1
    59    41    38    1
    60    38    37    1
    61    66    74   am
    62    66    67    2
    63    74    75    1
    64     2     3    1
    65     2     5    1
    66     3     4    2
    67   115   112    1
    68   115   116    1
    69    75    76    1
    70     5     6    1
    71    20    19   ar
    72    20    18   ar
    73    19    17   ar
    74   118   116   ar
    75    85    83   ar
    76   112   111    1
    77   112   113    1
    78   109   108   ar
    79    76    77    2
    80   116   117   ar
    81    92    91   ar
    82    18    16   ar
    83    93    91   ar
    84   110   108   ar
    85    17    16   ar
    86    83    84   ar
    87    83    82    1
    88   108   107    1
    89    91    90    1
    90     6     8   ar
    91     6     7   ar
    92    16    15    1
    93   113   114    2
    94    36    34   am
    95    27    26   ar
    96     8    10   ar
    97    33    34    1
    98    33    30    1
    99     7     9   ar
   100    34    35    2
   101   105   104    1
   102   105   106    2
   103    82    79    1
   104    26    28   ar
   105    26    25    1
   106    90    87    1
   107   104   107    1
   108   104   103    1
   109    15    12    1
   110    32    31    2
   111    25    22    1
   112    81    80    2
   113    31    30    1
   114    10     9   ar
   115   101   100   ar
   116    30    29    1
   117    22    23    1
   118    22    21    1
   119    87    86    1
   120    87    88    1
   121    79    80    1
   122    79    78    1
   123    24    23    2
   124    12    11    1
   125    12    13    1
   126   100   102   ar
   127   100    99    1
   128    88    89    2
   129    13    14    2
   130    99    98    1
   131    94    95    1
   132    98    95    1
   133    95    96    1
   134    96    97    2
