@<TRIPOS>MOLECULE
tmp/1hqlB00.pdb
 93 92 0 0 0
SMALL
GASTEIGER

@<TRIPOS>ATOM
      1  N         27.1550   15.3810   17.2610 N.3    44  TRP44      -0.1241
      2  CA        27.8090   16.2040   16.2510 C.3    44  TRP44       0.1605
      3  C         28.8940   17.1310   16.7860 C.2    44  TRP44       0.2264
      4  O         28.8510   18.3520   16.6240 O.2    44  TRP44      -0.2867
      5  CB        26.7500   17.0040   15.4870 C.3    44  TRP44       0.0550
      6  CG        25.7390   16.1060   14.7930 C.ar   44  TRP44       0.0003
      7  CD1       24.4990   15.7240   15.2630 C.ar   44  TRP44       0.0946
      8  CD2       25.9220   15.4100   13.5520 C.ar   44  TRP44       0.0152
      9  NE1       23.9170   14.8360   14.3920 N.ar   44  TRP44      -0.2442
     10  CE2       24.7690   14.6200   13.3350 C.ar   44  TRP44       0.0810
     11  CE3       26.9560   15.3660   12.6070 C.ar   44  TRP44       0.0012
     12  CZ2       24.6170   13.8060   12.2030 C.ar   44  TRP44       0.0191
     13  CZ3       26.8070   14.5620   11.4910 C.ar   44  TRP44       0.0001
     14  CH2       25.6480   13.7880   11.2980 C.ar   44  TRP44       0.0015
     15  N         30.3380    5.8790   17.3530 N.3    84  ALA84      -0.1231
     16  CA        30.7240    6.6490   16.1740 C.3    84  ALA84       0.1694
     17  C         31.2870    7.9780   16.6430 C.2    84  ALA84       0.2592
     18  O         30.8800    8.4780   17.6940 O.2    84  ALA84      -0.2718
     19  CB        29.5100    6.8810   15.2760 C.3    84  ALA84       0.0304
     20  N         32.1940    8.5680   15.8660 N.am   85  ASP85      -0.1974
     21  CA        32.6590    7.9920   14.5980 C.3    85  ASP85       0.1709
     22  C         34.0620    7.4000   14.6090 C.2    85  ASP85       0.2293
     23  O         34.4650    6.7240   13.6580 O.2    85  ASP85      -0.2864
     24  CB        32.5750    9.0510   13.5110 C.3    85  ASP85       0.1436
     25  CG        31.1550    9.2830   13.0480 C.2    85  ASP85       0.3671
     26  OD1       30.7780    8.7140   12.0020 O.co2  85  ASP85      -0.2456
     27  OD2       30.4150   10.0190   13.7420 O.co2  85  ASP85      -0.2456
     28  N         31.0170   11.6260   10.2260 N.3   103  GLU103     -0.1245
     29  CA        31.9190   10.7870    9.4330 C.3   103  GLU103      0.1567
     30  C         33.1810   11.4760    8.9090 C.2   103  GLU103      0.2260
     31  O         34.0880   10.8270    8.4110 O.2   103  GLU103     -0.2867
     32  CB        31.1590   10.2050    8.2440 C.3   103  GLU103      0.0388
     33  CG        30.5700   11.2560    7.3290 C.3   103  GLU103      0.1160
     34  CD        29.1080   11.5550    7.6220 C.2   103  GLU103      0.3649
     35  OE1       28.7820   11.9810    8.7520 O.co2 103  GLU103     -0.2457
     36  OE2       28.2850   11.3610    6.7030 O.co2 103  GLU103     -0.2457
     37  N         32.4590    3.2790   12.4350 N.3   129  TRP129     -0.1241
     38  CA        31.1220    3.3180   11.8540 C.3   129  TRP129      0.1605
     39  C         31.1330    3.3850   10.3340 C.2   129  TRP129      0.2264
     40  O         31.7100    4.2970    9.7570 O.2   129  TRP129     -0.2867
     41  CB        30.3530    4.5130   12.4450 C.3   129  TRP129      0.0550
     42  CG        28.9680    4.6950   11.9090 C.ar  129  TRP129      0.0003
     43  CD1       28.6190    5.1870   10.6770 C.ar  129  TRP129      0.0946
     44  CD2       27.7410    4.3340   12.5580 C.ar  129  TRP129      0.0152
     45  NE1       27.2510    5.1460   10.5220 N.ar  129  TRP129     -0.2442
     46  CE2       26.6890    4.6280   11.6590 C.ar  129  TRP129      0.0810
     47  CE3       27.4270    3.7860   13.8090 C.ar  129  TRP129      0.0012
     48  CZ2       25.3440    4.3910   11.9730 C.ar  129  TRP129      0.0191
     49  CZ3       26.0910    3.5500   14.1170 C.ar  129  TRP129      0.0001
     50  CH2       25.0680    3.8520   13.2010 C.ar  129  TRP129      0.0015
     51  N         29.8020    4.2140    6.8400 N.3   131  ASN131     -0.1226
     52  CA        28.9240    5.2210    6.2570 C.3   131  ASN131      0.1770
     53  C         28.5020    4.8860    4.8300 C.2   131  ASN131      0.2439
     54  O         29.3180    4.4510    4.0170 O.2   131  ASN131     -0.2733
     55  CB        29.6220    6.5830    6.2700 C.3   131  ASN131      0.1168
     56  CG        29.7970    7.1260    7.6650 C.2   131  ASN131      0.2627
     57  OD1       30.8960    7.0900    8.2220 O.2   131  ASN131     -0.2716
     58  ND2       28.7180    7.6440    8.2390 N.am  131  ASN131     -0.0877
     59  N         27.2160    5.0910    4.5090 N.am  132  PRO132     -0.2718
     60  CA        26.6960    4.8110    3.1660 C.3   132  PRO132      0.1535
     61  C         26.8460    6.0040    2.2140 C.2   132  PRO132      0.2598
     62  O         26.7380    5.8540    1.0020 O.2   132  PRO132     -0.2715
     63  CB        25.2390    4.4660    3.4390 C.3   132  PRO132      0.0310
     64  CG        24.8960    5.4060    4.5440 C.3   132  PRO132      0.0237
     65  CD        26.1110    5.3230    5.4580 C.3   132  PRO132      0.0939
     66  N         27.1160    7.1810    2.7760 N.am  133  ASN133     -0.1973
     67  CA        27.2800    8.4260    2.0130 C.3   133  ASN133      0.1688
     68  C         28.4000    8.3590    0.9690 C.2   133  ASN133      0.2292
     69  O         28.3510    9.0470   -0.0500 O.2   133  ASN133     -0.2864
     70  CB        27.5990    9.5880    2.9590 C.3   133  ASN133      0.1181
     71  CG        27.0080    9.4030    4.3310 C.2   133  ASN133      0.2629
     72  OD1       27.3110    8.4310    5.0250 O.2   133  ASN133     -0.2716
     73  ND2       26.1580   10.3410    4.7400 N.am  133  ASN133     -0.0877
     74  N         28.4970   11.7920   15.7140 N.3   218  GLY218     -0.1210
     75  CA        27.3400   12.1410   14.9150 C.3   218  GLY218      0.1956
     76  C         26.0900   12.1240   15.7860 C.2   218  GLY218      0.2612
     77  O         26.0630   12.7720   16.8340 O.2   218  GLY218     -0.2717
     78  N         25.0600   11.3890   15.3670 N.am  219  ASN219     -0.1960
     79  CA        23.8000   11.3070   16.1230 C.3   219  ASN219      0.1819
     80  C         23.8810   10.4440   17.3850 C.2   219  ASN219      0.2621
     81  O         23.3220   10.7970   18.4190 O.2   219  ASN219     -0.2715
     82  CB        22.6560   10.7660   15.2430 C.3   219  ASN219      0.1195
     83  CG        22.1090   11.8020   14.2700 C.2   219  ASN219      0.2630
     84  OD1       21.8410   12.9550   14.6370 O.2   219  ASN219     -0.2716
     85  ND2       21.9140   11.3850   13.0180 N.am  219  ASN219     -0.0877
     86  N         24.5530    9.3000   17.2940 N.am  220  ASN220     -0.1972
     87  CA        24.6770    8.4110   18.4460 C.3   220  ASN220      0.1688
     88  C         25.4820    9.0590   19.5460 C.2   220  ASN220      0.2292
     89  O         26.2560    9.9880   19.3110 O.2   220  ASN220     -0.2864
     90  CB        25.3560    7.0930   18.0660 C.3   220  ASN220      0.1181
     91  CG        24.4720    6.1990   17.2380 C.2   220  ASN220      0.2629
     92  OD1       24.9070    5.1490   16.7670 O.2   220  ASN220     -0.2716
     93  ND2       23.2220    6.6060   17.0520 N.am  220  ASN220     -0.0877
@<TRIPOS>BOND
     1    69    68    2
     2    68    67    1
     3    62    61    2
     4    67    66    1
     5    67    70    1
     6    61    66   am
     7    61    60    1
     8    70    71    1
     9    60    63    1
    10    60    59    1
    11    63    64    1
    12    54    53    2
    13    71    73   am
    14    71    72    2
    15    59    53   am
    16    59    65    1
    17    64    65    1
    18    53    52    1
    19    52    55    1
    20    52    51    1
    21    55    56    1
    22    36    34   ar
    23    33    34    1
    24    33    32    1
    25    34    35   ar
    26    56    57    2
    27    56    58   am
    28    32    29    1
    29    31    30    2
    30    30    29    1
    31    29    28    1
    32    40    39    2
    33    39    38    1
    34    45    43   ar
    35    45    46   ar
    36    43    42   ar
    37    14    13   ar
    38    14    12   ar
    39    13    11   ar
    40    46    48   ar
    41    46    44   ar
    42    38    37    1
    43    38    41    1
    44    42    41    1
    45    42    44   ar
    46    48    50   ar
    47    26    25   ar
    48    12    10   ar
    49    44    47   ar
    50    11     8   ar
    51    85    83   am
    52    25    24    1
    53    25    27   ar
    54    50    49   ar
    55    10     8   ar
    56    10     9   ar
    57    24    21    1
    58     8     6   ar
    59    23    22    2
    60    47    49   ar
    61    83    84    2
    62    83    82    1
    63     9     7   ar
    64    21    22    1
    65    21    20    1
    66     6     7   ar
    67     6     5    1
    68    75    74    1
    69    75    76    1
    70    82    79    1
    71    19    16    1
    72    78    76   am
    73    78    79    1
    74     5     2    1
    75    76    77    2
    76    20    17   am
    77    79    80    1
    78    16    17    1
    79    16    15    1
    80     2     3    1
    81     2     1    1
    82     4     3    2
    83    17    18    2
    84    92    91    2
    85    93    91   am
    86    91    90    1
    87    86    80   am
    88    86    87    1
    89    80    81    2
    90    90    87    1
    91    87    88    1
    92    89    88    2
