@<TRIPOS>MOLECULE
tmp/1hqpA00.pdb
 150 136 0 0 0
SMALL
GASTEIGER

@<TRIPOS>ATOM
      1  N          8.2640   -0.3620   14.2700 N.3    10  THR10      -0.1218
      2  CA         9.0830   -1.3880   13.6520 C.3    10  THR10       0.1862
      3  C          8.9020   -2.6800   14.4310 C.2    10  THR10       0.2287
      4  O          9.2220   -2.7430   15.6160 O.2    10  THR10      -0.2866
      5  CB        10.5650   -1.0010   13.7410 C.3    10  THR10       0.1770
      6  OG1       10.7300    0.3700   13.3530 O.3    10  THR10      -0.2211
      7  CG2       11.4080   -1.9160   12.8520 C.3    10  THR10       0.0375
      8  N         12.9170   -6.8070   11.2480 N.3    13  ILE13      -0.1245
      9  CA        13.8370   -6.3320   10.2210 C.3    13  ILE13       0.1561
     10  C         14.7240   -7.4500    9.6860 C.2    13  ILE13       0.2260
     11  O         15.3580   -8.1890   10.4480 O.2    13  ILE13      -0.2867
     12  CB        14.7630   -5.2170   10.7390 C.3    13  ILE13       0.0252
     13  CG1       15.7240   -5.7750   11.7910 C.3    13  ILE13       0.0019
     14  CG2       13.9410   -4.0860   11.3440 C.3    13  ILE13       0.0019
     15  CD1       16.6450   -4.7350   12.3880 C.3    13  ILE13       0.0001
     16  N         21.1610    0.4780   11.9820 N.3    27  PHE27      -0.1241
     17  CA        19.8730   -0.0610   11.5750 C.3    27  PHE27       0.1605
     18  C         18.8570   -0.5590   12.5990 C.2    27  PHE27       0.2264
     19  O         17.7120   -0.8420   12.2460 O.2    27  PHE27      -0.2867
     20  CB        19.8630   -0.7570   10.2120 C.3    27  PHE27       0.0534
     21  CG        19.9450    0.1990    9.0530 C.ar   27  PHE27      -0.0203
     22  CD1       21.1730    0.6050    8.5510 C.ar   27  PHE27      -0.0042
     23  CD2       18.7900    0.7220    8.4910 C.ar   27  PHE27      -0.0042
     24  CE1       21.2420    1.5020    7.4990 C.ar   27  PHE27      -0.0003
     25  CE2       18.8540    1.6220    7.4410 C.ar   27  PHE27      -0.0003
     26  CZ        20.0810    2.0020    6.9330 C.ar   27  PHE27      -0.0000
     27  N         16.4930    0.3120   13.9220 N.3    29  VAL29      -0.1245
     28  CA        15.5360    1.4030   13.8390 C.3    29  VAL29       0.1561
     29  C         14.2190    1.1140   14.5400 C.2    29  VAL29       0.2260
     30  O         13.8070   -0.0390   14.6450 O.2    29  VAL29      -0.2867
     31  CB        15.2560    1.7620   12.3720 C.3    29  VAL29       0.0252
     32  CG1       14.0260    2.6550   12.2600 C.3    29  VAL29       0.0019
     33  CG2       16.4660    2.4570   11.7880 C.3    29  VAL29       0.0019
     34  N         10.5390    2.9070   14.1150 N.3    31  MET31      -0.1245
     35  CA         9.7320    3.9200   13.4480 C.3    31  MET31       0.1570
     36  C          8.7680    4.5850   14.4330 C.2    31  MET31       0.2261
     37  O          8.4980    4.0430   15.5030 O.2    31  MET31      -0.2867
     38  CB         8.9920    3.2960   12.2580 C.3    31  MET31       0.0387
     39  CG         8.4880    4.2910   11.2150 C.3    31  MET31       0.0595
     40  SD         9.7810    5.1340   10.2700 S.3    31  MET31      -0.1393
     41  CE        10.4890    3.7650    9.3680 C.3    31  MET31       0.0692
     42  N          5.2460    8.1390    9.4730 N.3    34  ILE34      -0.1245
     43  CA         5.6550    8.2080    8.0780 C.3    34  ILE34       0.1561
     44  C          4.6810    9.0510    7.2680 C.2    34  ILE34       0.2260
     45  O          3.5610    8.6380    6.9890 O.2    34  ILE34      -0.2867
     46  CB         5.7720    6.8000    7.4450 C.3    34  ILE34       0.0252
     47  CG1        6.8480    5.9860    8.1660 C.3    34  ILE34       0.0019
     48  CG2        6.1160    6.9040    5.9650 C.3    34  ILE34       0.0019
     49  CD1        7.1860    4.6610    7.5100 C.3    34  ILE34       0.0001
     50  N         10.0080   10.8780    7.5890 N.3    45  LEU45      -0.1245
     51  CA        10.1090    9.7630    8.5240 C.3    45  LEU45       0.1561
     52  C         10.6770   10.1800    9.8780 C.2    45  LEU45       0.2260
     53  O         11.7640   10.7550    9.9620 O.2    45  LEU45      -0.2867
     54  CB        10.9410    8.6040    7.9630 C.3    45  LEU45       0.0270
     55  CG        10.7420    8.0580    6.5480 C.3    45  LEU45       0.0019
     56  CD1       11.6750    8.7540    5.5620 C.3    45  LEU45       0.0001
     57  CD2       10.9180    6.5460    6.5010 C.3    45  LEU45       0.0001
     58  N         11.7930    8.6860   13.4470 N.3    47  PHE47      -0.1241
     59  CA        12.1470    7.4180   14.0700 C.3    47  PHE47       0.1605
     60  C         13.2950    7.5410   15.0680 C.2    47  PHE47       0.2264
     61  O         14.1420    8.4170   14.9520 O.2    47  PHE47      -0.2867
     62  CB        12.5300    6.4110   12.9760 C.3    47  PHE47       0.0534
     63  CG        13.8310    6.7270   12.2790 C.ar   47  PHE47      -0.0203
     64  CD1       13.8510    7.4820   11.1140 C.ar   47  PHE47      -0.0042
     65  CD2       15.0400    6.2670   12.7900 C.ar   47  PHE47      -0.0042
     66  CE1       15.0480    7.7640   10.4740 C.ar   47  PHE47      -0.0003
     67  CE2       16.2340    6.5520   12.1600 C.ar   47  PHE47      -0.0003
     68  CZ        16.2390    7.2980   10.9980 C.ar   47  PHE47      -0.0000
     69  N         13.7420   12.4130    8.8960 N.3    60  LEU60      -0.1245
     70  CA        14.3090   12.4490    7.5490 C.3    60  LEU60       0.1561
     71  C         13.3190   12.7040    6.4170 C.2    60  LEU60       0.2260
     72  O         12.1900   12.2220    6.4530 O.2    60  LEU60      -0.2867
     73  CB        15.0470   11.1380    7.2300 C.3    60  LEU60       0.0270
     74  CG        16.4440   10.8010    7.7550 C.3    60  LEU60       0.0019
     75  CD1       16.4890   10.7350    9.2750 C.3    60  LEU60       0.0001
     76  CD2       16.9100    9.4940    7.1540 C.3    60  LEU60       0.0001
     77  N         17.0720    8.6970    0.5040 N.3    72  VAL72      -0.1245
     78  CA        17.3270    9.2810    1.8180 C.3    72  VAL72       0.1561
     79  C         18.7810    9.0540    2.2250 C.2    72  VAL72       0.2260
     80  O         19.4000    8.0460    1.8830 O.2    72  VAL72      -0.2867
     81  CB        16.4320    8.6410    2.9010 C.3    72  VAL72       0.0252
     82  CG1       16.8430    7.1960    3.1430 C.3    72  VAL72       0.0019
     83  CG2       16.4740    9.4450    4.1930 C.3    72  VAL72       0.0019
     84  N         21.4440    8.7360    5.2840 N.3    74  TYR74      -0.1241
     85  CA        21.5130    8.3390    6.6840 C.3    74  TYR74       0.1605
     86  C         22.4200    7.1120    6.7530 C.2    74  TYR74       0.2264
     87  O         22.1930    6.1320    6.0500 O.2    74  TYR74      -0.2867
     88  CB        20.1120    7.9690    7.1810 C.3    74  TYR74       0.0534
     89  CG        20.0670    7.3800    8.5770 C.ar   74  TYR74      -0.0201
     90  CD1       20.0370    8.1980    9.7010 C.ar   74  TYR74      -0.0009
     91  CD2       20.0320    6.0060    8.7690 C.ar   74  TYR74      -0.0009
     92  CE1       19.9760    7.6620   10.9750 C.ar   74  TYR74       0.0417
     93  CE2       19.9760    5.4610   10.0400 C.ar   74  TYR74       0.0417
     94  CZ        19.9350    6.2940   11.1380 C.ar   74  TYR74       0.1957
     95  OH        19.8960    5.7480   12.3980 O.3    74  TYR74      -0.2866
     96  N         20.6200    5.5430    0.9800 N.3    78  ASN78      -0.1240
     97  CA        19.5720    4.5600    1.2350 C.3    78  ASN78       0.1653
     98  C         18.5410    4.5690    0.1250 C.2    78  ASN78       0.2266
     99  O         18.2100    5.6190   -0.4120 O.2    78  ASN78      -0.2867
    100  CB        18.8900    4.8300    2.5760 C.3    78  ASN78       0.1155
    101  CG        19.7930    4.5270    3.7540 C.2    78  ASN78       0.2627
    102  OD1       20.2590    3.3980    3.9120 O.2    78  ASN78      -0.2716
    103  ND2       20.0770    5.5420    4.5650 N.am   78  ASN78      -0.0877
    104  N         14.7460    2.6380   -0.6510 N.3    80  PHE80      -0.1241
    105  CA        13.7020    1.7690   -0.1260 C.3    80  PHE80       0.1605
    106  C         12.4030    1.8920   -0.9090 C.2    80  PHE80       0.2264
    107  O         12.1760    2.8650   -1.6280 O.2    80  PHE80      -0.2867
    108  CB        13.4650    2.0580    1.3550 C.3    80  PHE80       0.0534
    109  CG        12.8230    3.3930    1.6180 C.ar   80  PHE80      -0.0203
    110  CD1       13.4940    4.5680    1.3360 C.ar   80  PHE80      -0.0042
    111  CD2       11.5580    3.4730    2.1850 C.ar   80  PHE80      -0.0042
    112  CE1       12.9000    5.7960    1.5740 C.ar   80  PHE80      -0.0003
    113  CE2       10.9660    4.6990    2.4340 C.ar   80  PHE80      -0.0003
    114  CZ        11.6360    5.8620    2.1200 C.ar   80  PHE80      -0.0000
    115  N          8.8460   -2.9360    4.2650 N.3    92  ILE92      -0.1245
    116  CA         9.7440   -2.1500    3.4420 C.3    92  ILE92       0.1561
    117  C         11.0290   -2.9060    3.1560 C.2    92  ILE92       0.2260
    118  O         11.4070   -3.8180    3.8890 O.2    92  ILE92      -0.2867
    119  CB        10.0640   -0.8040    4.1140 C.3    92  ILE92       0.0252
    120  CG1       10.7810    0.1410    3.1510 C.3    92  ILE92       0.0019
    121  CG2       10.9990   -1.0220    5.2970 C.3    92  ILE92       0.0019
    122  CD1       12.2630    0.0230    3.2360 C.3    92  ILE92       0.0001
    123  N         15.1320   -1.8550    1.9030 N.3    94  ASN94      -0.1240
    124  CA        16.0340   -0.7430    1.6590 C.3    94  ASN94       0.1653
    125  C         17.4290   -1.2220    1.3430 C.2    94  ASN94       0.2266
    126  O         17.9350   -2.1520    1.9730 O.2    94  ASN94      -0.2867
    127  CB        16.0780    0.2590    2.8150 C.3    94  ASN94       0.1155
    128  CG        17.3510    1.1030    2.8110 C.2    94  ASN94       0.2627
    129  OD1       18.4110    0.6440    3.2370 O.2    94  ASN94      -0.2716
    130  ND2       17.2640    2.3160    2.2730 N.am   94  ASN94      -0.0877
    131  N         18.1060   -5.0650    3.3970 N.3   106  MET106     -0.1245
    132  CA        17.2530   -5.2000    4.5700 C.3   106  MET106      0.1570
    133  C         15.7850   -5.2490    4.1610 C.2   106  MET106      0.2261
    134  O         15.4030   -4.8150    3.0710 O.2   106  MET106     -0.2867
    135  CB        17.4290   -3.9790    5.4750 C.3   106  MET106      0.0387
    136  CG        18.8030   -3.7990    6.0980 C.3   106  MET106      0.0595
    137  SD        19.1480   -2.0540    6.4440 S.3   106  MET106     -0.1393
    138  CE        19.6520   -1.4940    4.8280 C.3   106  MET106      0.0692
    139  N         11.9060   -4.5660    6.2240 N.3   108  GLY108     -0.1225
    140  CA        11.3720   -4.0450    7.4710 C.3   108  GLY108      0.1811
    141  C          9.8530   -4.1170    7.4970 C.2   108  GLY108      0.2280
    142  O          9.1600   -3.4870    6.6960 O.2   108  GLY108     -0.2866
    143  N          6.5890   -3.0840    9.0800 N.3   110  LEU110     -0.1245
    144  CA         6.0260   -2.0210    9.9000 C.3   110  LEU110      0.1561
    145  C          4.5430   -2.2520   10.1550 C.2   110  LEU110      0.2260
    146  O          3.8190   -2.7580    9.2960 O.2   110  LEU110     -0.2867
    147  CB         6.2740   -0.6560    9.2680 C.3   110  LEU110      0.0270
    148  CG         7.7550   -0.2820    9.1400 C.3   110  LEU110      0.0019
    149  CD1        8.4450   -0.1910   10.4840 C.3   110  LEU110      0.0001
    150  CD2        8.4980   -1.2420    8.2290 C.3   110  LEU110      0.0001
@<TRIPOS>BOND
     1   107   106    2
     2   106   105    1
     3   104   105    1
     4    99    98    2
     5   105   108    1
     6    98    97    1
     7    77    78    1
     8    96    97    1
     9    97   100    1
    10   110   112   ar
    11   110   109   ar
    12   125   124    1
    13   125   126    2
    14   108   109    1
    15   112   114   ar
    16   109   111   ar
    17   124   123    1
    18   124   127    1
    19    78    79    1
    20    78    81    1
    21    80    79    2
    22   114   113   ar
    23   111   113   ar
    24   130   128   am
    25   100   101    1
    26   128   127    1
    27   128   129    2
    28    81    82    1
    29    81    83    1
    30   134   133    2
    31   120   122    1
    32   120   119    1
    33   117   116    1
    34   117   118    2
    35   131   132    1
    36   116   119    1
    37   116   115    1
    38   101   102    2
    39   101   103   am
    40   119   121    1
    41   133   132    1
    42   132   135    1
    43   138   137    1
    44    84    85    1
    45   135   136    1
    46    56    55    1
    47    48    46    1
    48    87    86    2
    49   136   137    1
    50   139   140    1
    51    71    72    2
    52    71    70    1
    53    57    55    1
    54    55    54    1
    55    85    86    1
    56    85    88    1
    57   142   141    2
    58    26    25   ar
    59    26    24   ar
    60    45    44    2
    61    76    74    1
    62    88    89    1
    63    73    70    1
    64    73    74    1
    65    44    43    1
    66    25    23   ar
    67    46    43    1
    68    46    47    1
    69   140   141    1
    70    24    22   ar
    71    49    47    1
    72    70    69    1
    73    50    51    1
    74    74    75    1
    75    54    51    1
    76    43    42    1
    77   150   148    1
    78    23    21   ar
    79    51    52    1
    80    22    21   ar
    81    89    91   ar
    82    89    90   ar
    83    91    93   ar
    84    21    20    1
    85   143   144    1
    86   148   147    1
    87   148   149    1
    88   147   144    1
    89   146   145    2
    90    41    40    1
    91    10     9    1
    92    10    11    2
    93    90    92   ar
    94    52    53    2
    95   144   145    1
    96    93    94   ar
    97    20    17    1
    98     9    12    1
    99     9     8    1
   100    40    39    1
   101    66    68   ar
   102    66    64   ar
   103    12    14    1
   104    12    13    1
   105    92    94   ar
   106    68    67   ar
   107    64    63   ar
   108    94    95    1
   109    39    38    1
   110    17    16    1
   111    17    18    1
   112    33    31    1
   113    13    15    1
   114    67    65   ar
   115    19    18    2
   116    38    35    1
   117    32    31    1
   118    63    65   ar
   119    63    62    1
   120    31    28    1
   121     7     5    1
   122    62    59    1
   123     6     5    1
   124    58    59    1
   125    35    34    1
   126    35    36    1
   127     2     5    1
   128     2     1    1
   129     2     3    1
   130    28    27    1
   131    28    29    1
   132    59    60    1
   133     3     4    2
   134    36    37    2
   135    29    30    2
   136    61    60    2
