@<TRIPOS>MOLECULE
tmp/1hqsA00.pdb
 116 110 0 0 0
SMALL
GASTEIGER

@<TRIPOS>ATOM
      1  N         32.7820    6.1220   33.3970 N.3    93  PRO93      -0.2102
      2  CA        33.3020    5.7300   32.0810 C.3    93  PRO93       0.1504
      3  C         32.5050    4.6520   31.3570 C.2    93  PRO93       0.2575
      4  O         31.8480    3.8370   31.9820 O.2    93  PRO93      -0.2718
      5  CB        34.7180    5.2700   32.4110 C.3    93  PRO93       0.0282
      6  CG        34.5320    4.5910   33.7810 C.3    93  PRO93       0.0208
      7  CD        33.5290    5.4890   34.5040 C.3    93  PRO93       0.0893
      8  N         32.5070    4.7170   30.0320 N.am   94  LEU94      -0.1980
      9  CA        31.8160    3.7360   29.2020 C.3    94  LEU94       0.1596
     10  C         32.8420    3.2170   28.2020 C.2    94  LEU94       0.2287
     11  O         33.5060    3.9930   27.5090 O.2    94  LEU94      -0.2864
     12  CB        30.6200    4.3610   28.4760 C.3    94  LEU94       0.0297
     13  CG        29.4830    4.8720   29.3750 C.3    94  LEU94       0.0022
     14  CD1       28.4060    5.5570   28.5610 C.3    94  LEU94       0.0001
     15  CD2       28.9110    3.7020   30.1400 C.3    94  LEU94       0.0001
     16  N         34.5000    1.5760   24.9390 N.3    96  THR96      -0.1218
     17  CA        34.2910    1.5490   23.4990 C.3    96  THR96       0.1862
     18  C         35.2350    0.4790   22.9380 C.2    96  THR96       0.2287
     19  O         36.4430    0.4960   23.1980 O.2    96  THR96      -0.2866
     20  CB        34.6510    2.9100   22.8190 C.3    96  THR96       0.1770
     21  OG1       33.9180    3.9660   23.4470 O.3    96  THR96      -0.2211
     22  CG2       34.3180    2.8740   21.3280 C.3    96  THR96       0.0375
     23  N         31.4810    4.6520   20.0300 N.3   104  SER104     -0.1217
     24  CA        31.5650    5.2390   21.3520 C.3   104  SER104      0.1889
     25  C         30.2630    5.8350   21.8610 C.2   104  SER104      0.2288
     26  O         29.6780    6.7130   21.2190 O.2   104  SER104     -0.2866
     27  CB        32.6260    6.3210   21.3670 C.3   104  SER104      0.2089
     28  OG        32.6250    6.9750   22.6120 O.3   104  SER104     -0.2183
     29  N         30.1510    7.4600   24.6720 N.3   106  ASN106     -0.1225
     30  CA        30.5270    8.7420   25.2560 C.3   106  ASN106      0.1785
     31  C         30.3810    9.8000   24.1720 C.2   106  ASN106      0.2597
     32  O         29.8720   10.9020   24.4200 O.2   106  ASN106     -0.2718
     33  CB        31.9490    8.6750   25.7750 C.3   106  ASN106      0.1169
     34  CG        32.1520    7.5280   26.7450 C.2   106  ASN106      0.2627
     35  OD1       31.5270    7.4840   27.7980 O.2   106  ASN106     -0.2716
     36  ND2       33.0170    6.5800   26.3810 N.am  106  ASN106     -0.0877
     37  N         30.7840    9.4420   22.9540 N.am  107  VAL107     -0.1980
     38  CA        30.6770   10.3410   21.8100 C.3   107  VAL107      0.1595
     39  C         29.2310   10.4690   21.3450 C.2   107  VAL107      0.2287
     40  O         28.7850   11.5540   20.9610 O.2   107  VAL107     -0.2864
     41  CB        31.5920    9.8650   20.6480 C.3   107  VAL107      0.0276
     42  CG1       31.3160   10.6430   19.3750 C.3   107  VAL107      0.0022
     43  CG2       33.0640   10.0180   21.0600 C.3   107  VAL107      0.0022
     44  N         27.5610   13.0490   23.4420 N.3   110  ARG110     -0.1245
     45  CA        28.0110   14.3910   23.0560 C.3   110  ARG110      0.1563
     46  C         27.3390   14.8700   21.7940 C.2   110  ARG110      0.2260
     47  O         26.9110   16.0180   21.7140 O.2   110  ARG110     -0.2867
     48  CB        29.5260   14.4230   22.8310 C.3   110  ARG110      0.0307
     49  CG        30.2990   14.1150   24.0570 C.3   110  ARG110      0.0489
     50  CD        31.7240   13.7530   23.7280 C.3   110  ARG110      0.2205
     51  NE        32.4180   13.3170   24.9270 N.pl3 110  ARG110     -0.0865
     52  CZ        33.5900   12.6990   24.9250 C.cat 110  ARG110      0.5346
     53  NH1       34.2120   12.4500   23.7730 N.pl3 110  ARG110      0.1354
     54  NH2       34.1150   12.2960   26.0750 N.pl3 110  ARG110      0.1354
     55  N         38.0060   21.9850   23.8160 N.3   143  ARG143     -0.1245
     56  CA        38.0550   21.0120   22.7450 C.3   143  ARG143      0.1563
     57  C         36.7310   20.9250   21.9840 C.2   143  ARG143      0.2260
     58  O         35.6870   20.6870   22.5880 O.2   143  ARG143     -0.2867
     59  CB        38.4260   19.6510   23.3680 C.3   143  ARG143      0.0307
     60  CG        38.1850   18.4190   22.4920 C.3   143  ARG143      0.0489
     61  CD        38.4540   17.1450   23.2960 C.3   143  ARG143      0.2205
     62  NE        38.1500   15.9600   22.4970 N.pl3 143  ARG143     -0.0865
     63  CZ        37.9260   14.7440   22.9910 C.cat 143  ARG143      0.5346
     64  NH1       37.6570   13.7430   22.1630 N.pl3 143  ARG143      0.1354
     65  NH2       38.0130   14.5110   24.2890 N.pl3 143  ARG143      0.1354
     66  N         35.9010   12.3910   14.7050 N.3   150  TYR150     -0.1241
     67  CA        34.9960   11.7610   15.6640 C.3   150  TYR150      0.1605
     68  C         33.5660   11.6010   15.1520 C.2   150  TYR150      0.2264
     69  O         32.7270   10.9790   15.8140 O.2   150  TYR150     -0.2867
     70  CB        34.9560   12.5800   16.9380 C.3   150  TYR150      0.0534
     71  CG        36.0680   12.2640   17.8630 C.ar  150  TYR150     -0.0201
     72  CD1       37.3900   12.5310   17.5140 C.ar  150  TYR150     -0.0009
     73  CD2       35.8120   11.6850   19.1040 C.ar  150  TYR150     -0.0009
     74  CE1       38.4330   12.2310   18.3820 C.ar  150  TYR150      0.0417
     75  CE2       36.8440   11.3760   19.9810 C.ar  150  TYR150      0.0417
     76  CZ        38.1540   11.6540   19.6140 C.ar  150  TYR150      0.1957
     77  OH        39.1700   11.3580   20.4850 O.3   150  TYR150     -0.2866
     78  N         41.7430   15.7880   22.3920 N.3   310  ASP310     -0.1239
     79  CA        41.8700   14.5160   23.1010 C.3   310  ASP310      0.1674
     80  C         43.3410   14.2650   23.4820 C.2   310  ASP310      0.2266
     81  O         43.6780   14.0560   24.6450 O.2   310  ASP310     -0.2867
     82  CB        41.3610   13.3770   22.2110 C.3   310  ASP310      0.1410
     83  CG        41.5610   12.0060   22.8400 C.2   310  ASP310      0.3668
     84  OD1       42.0340   11.0870   22.1350 O.co2 310  ASP310     -0.2456
     85  OD2       41.2600   11.8520   24.0430 O.co2 310  ASP310     -0.2456
     86  N         32.0870   14.4510   33.4780 N.3   341  GLU341     -0.1231
     87  CA        32.7060   13.1350   33.5410 C.3   341  GLU341      0.1699
     88  C         34.2210   13.1460   33.6750 C.2   341  GLU341      0.2592
     89  O         34.8650   14.1570   33.4270 O.2   341  GLU341     -0.2718
     90  CB        32.3630   12.3790   32.2550 C.3   341  GLU341      0.0402
     91  CG        32.9450   13.0110   30.9740 C.3   341  GLU341      0.1161
     92  CD        32.6600   12.1880   29.7130 C.2   341  GLU341      0.3649
     93  OE1       32.4500   12.7770   28.6330 O.co2 341  GLU341     -0.2457
     94  OE2       32.6420   10.9410   29.7890 O.co2 341  GLU341     -0.2457
     95  N         34.7830   12.0020   34.0610 N.am  342  ALA342     -0.1966
     96  CA        36.2390   11.8570   34.1500 C.3   342  ALA342      0.1728
     97  C         36.7380   11.6430   32.7070 C.2   342  ALA342      0.2617
     98  O         35.9470   11.2750   31.8330 O.2   342  ALA342     -0.2715
     99  CB        36.5880   10.6620   35.0150 C.3   342  ALA342      0.0334
    100  N         38.0080   11.9330   32.4320 N.am  343  THR343     -0.1937
    101  CA        38.5500   11.7370   31.0670 C.3   343  THR343      0.2028
    102  C         38.6570   10.2370   30.7690 C.2   343  THR343      0.2642
    103  O         38.3270    9.7680   29.6660 O.2   343  THR343     -0.2714
    104  CB        39.9570   12.3680   30.9080 C.3   343  THR343      0.1808
    105  OG1       40.8190   11.9100   31.9640 O.3   343  THR343     -0.2208
    106  CG2       39.8660   13.8780   30.9350 C.3   343  THR343      0.0379
    107  N         39.1990    9.4440   31.6800 N.am  344  HIS344     -0.1973
    108  CA        39.3090    8.0320   31.3440 C.3   344  HIS344      0.1656
    109  C         38.8270    7.0400   32.3680 C.2   344  HIS344      0.2291
    110  O         38.6720    7.3460   33.5460 O.2   344  HIS344     -0.2864
    111  CB        40.7250    7.6720   30.8890 C.3   344  HIS344      0.0771
    112  CG        41.0800    8.2020   29.5360 C.ar  344  HIS344      0.0820
    113  ND1       40.4700    7.7670   28.3770 N.ar  344  HIS344     -0.2267
    114  CD2       41.9840    9.1350   29.1550 C.ar  344  HIS344      0.1154
    115  CE1       40.9830    8.4080   27.3430 C.ar  344  HIS344      0.1986
    116  NE2       41.9040    9.2450   27.7880 N.ar  344  HIS344     -0.2212
@<TRIPOS>BOND
     1    66    67    1
     2    68    67    1
     3    68    69    2
     4    67    70    1
     5    70    71    1
     6    72    71   ar
     7    72    74   ar
     8    71    73   ar
     9    74    76   ar
    10    73    75   ar
    11    42    41    1
    12    76    75   ar
    13    76    77    1
    14    23    24    1
    15    41    43    1
    16    41    38    1
    17    40    39    2
    18    26    25    2
    19    22    20    1
    20    39    38    1
    21    24    27    1
    22    24    25    1
    23    27    28    1
    24    47    46    2
    25    46    45    1
    26    38    37    1
    27    57    58    2
    28    57    56    1
    29    84    83   ar
    30    64    63    1
    31    82    83    1
    32    82    79    1
    33    78    79    1
    34    60    61    1
    35    60    59    1
    36    62    63    2
    37    62    61    1
    38    56    59    1
    39    56    55    1
    40    20    21    1
    41    20    17    1
    42    48    45    1
    43    48    49    1
    44    83    85   ar
    45    18    19    2
    46    18    17    1
    47    37    31   am
    48    63    65    1
    49    45    44    1
    50    79    80    1
    51    80    81    2
    52    17    16    1
    53    50    49    1
    54    50    51    1
    55    53    52    1
    56    31    32    2
    57    31    30    1
    58    29    30    1
    59    52    51    2
    60    52    54    1
    61    30    33    1
    62    33    34    1
    63    36    34   am
    64    34    35    2
    65   115   116   ar
    66   115   113   ar
    67    11    10    2
    68   116   114   ar
    69    10     9    1
    70   113   112   ar
    71    12     9    1
    72    12    13    1
    73    14    13    1
    74    93    92   ar
    75   114   112   ar
    76     9     8    1
    77    13    15    1
    78   112   111    1
    79   103   102    2
    80    92    94   ar
    81    92    91    1
    82     8     3   am
    83   102   101    1
    84   102   107   am
    85   111   108    1
    86   104   106    1
    87   104   101    1
    88   104   105    1
    89    91    90    1
    90   101   100    1
    91   108   107    1
    92   108   109    1
    93     3     4    2
    94     3     2    1
    95    98    97    2
    96     2     5    1
    97     2     1    1
    98    90    87    1
    99   109   110    2
   100     5     6    1
   101   100    97   am
   102    97    96    1
   103     1     7    1
   104    89    88    2
   105    86    87    1
   106    87    88    1
   107    88    95   am
   108     6     7    1
   109    95    96    1
   110    96    99    1
