@<TRIPOS>MOLECULE
tmp/1hriA00.pdb
 184 177 0 0 0
SMALL
GASTEIGER

@<TRIPOS>ATOM
      1  N         43.0410    0.7020  131.0320 N.3    88  ILE88      -0.1231
      2  CA        42.8050    1.4950  129.8220 C.3    88  ILE88       0.1692
      3  C         41.8500    2.6360  130.1300 C.2    88  ILE88       0.2592
      4  O         40.7520    2.4220  130.6710 O.2    88  ILE88      -0.2718
      5  CB        42.2400    0.6250  128.7040 C.3    88  ILE88       0.0266
      6  CG1       43.2260    0.4480  127.5470 C.3    88  ILE88       0.0019
      7  CG2       40.9700    1.2050  128.0780 C.3    88  ILE88       0.0020
      8  CD1       44.0720   -0.8210  127.6700 C.3    88  ILE88       0.0001
      9  N         42.3360    3.7980  129.7600 N.am   89  ASN89      -0.1960
     10  CA        41.6480    5.0640  129.9650 C.3    89  ASN89       0.1819
     11  C         41.5780    5.8810  128.6990 C.2    89  ASN89       0.2621
     12  O         41.2930    5.3530  127.6140 O.2    89  ASN89      -0.2715
     13  CB        42.4330    5.9230  130.9580 C.3    89  ASN89       0.1195
     14  CG        41.7270    6.0780  132.3070 C.2    89  ASN89       0.2630
     15  OD1       41.6410    5.1180  133.0700 O.2    89  ASN89      -0.2716
     16  ND2       41.2120    7.2440  132.6510 N.am   89  ASN89      -0.0877
     17  N         41.8570    7.1400  128.9380 N.am   90  LEU90      -0.1977
     18  CA        41.8440    8.1810  127.9270 C.3    90  LEU90       0.1596
     19  C         41.2230    9.4300  128.5420 C.2    90  LEU90       0.2287
     20  O         40.9180   10.4020  127.8370 O.2    90  LEU90      -0.2864
     21  CB        41.0330    7.7070  126.7270 C.3    90  LEU90       0.0297
     22  CG        41.9050    7.4420  125.5040 C.3    90  LEU90       0.0022
     23  CD1       42.3170    5.9740  125.3660 C.3    90  LEU90       0.0001
     24  CD2       41.2150    7.8120  124.1930 C.3    90  LEU90       0.0001
     25  N         36.1420    6.6330  116.7400 N.3   108  PHE108     -0.1241
     26  CA        37.4350    6.8100  116.0770 C.3   108  PHE108      0.1605
     27  C         38.3110    5.5690  116.2070 C.2   108  PHE108      0.2264
     28  O         38.4050    4.9620  117.2850 O.2   108  PHE108     -0.2867
     29  CB        38.1900    7.9720  116.7330 C.3   108  PHE108      0.0534
     30  CG        38.1830    7.9060  118.2680 C.ar  108  PHE108     -0.0203
     31  CD1       39.0540    7.0360  118.9410 C.ar  108  PHE108     -0.0042
     32  CD2       37.3060    8.7140  119.0050 C.ar  108  PHE108     -0.0042
     33  CE1       39.0470    6.9770  120.3420 C.ar  108  PHE108     -0.0003
     34  CE2       37.3000    8.6550  120.4050 C.ar  108  PHE108     -0.0003
     35  CZ        38.1700    7.7860  121.0730 C.ar  108  PHE108     -0.0000
     36  N         41.9770    3.6630  116.2130 N.3   110  SER110     -0.1217
     37  CA        43.0750    4.0020  117.1300 C.3   110  SER110      0.1889
     38  C         44.4370    3.5370  116.6180 C.2   110  SER110      0.2288
     39  O         44.5310    2.5840  115.8290 O.2   110  SER110     -0.2866
     40  CB        42.8250    3.3710  118.4960 C.3   110  SER110      0.2089
     41  OG        41.8990    4.1630  119.2270 O.3   110  SER110     -0.2183
     42  N         48.0440    3.3360  118.7890 N.3   112  TYR112     -0.1241
     43  CA        48.8340    3.4300  120.0340 C.3   112  TYR112      0.1605
     44  C         50.3400    3.4280  119.7090 C.2   112  TYR112      0.2264
     45  O         50.7980    2.7080  118.8100 O.2   112  TYR112     -0.2867
     46  CB        48.5390    2.2200  120.9390 C.3   112  TYR112      0.0534
     47  CG        47.2570    2.4500  121.7480 C.ar  112  TYR112     -0.0201
     48  CD1       47.2380    3.4120  122.7670 C.ar  112  TYR112     -0.0009
     49  CD2       46.0980    1.7170  121.4600 C.ar  112  TYR112     -0.0009
     50  CE1       46.0660    3.6360  123.5010 C.ar  112  TYR112      0.0417
     51  CE2       44.9250    1.9420  122.1950 C.ar  112  TYR112      0.0417
     52  CZ        44.9090    2.9020  123.2150 C.ar  112  TYR112      0.1957
     53  OH        43.7720    3.1180  123.9300 O.3   112  TYR112     -0.2866
     54  N         54.3150   -5.9440  125.8860 N.3   134  ALA134     -0.1231
     55  CA        53.0700   -5.3000  126.2990 C.3   134  ALA134      0.1694
     56  C         51.8840   -6.2000  125.8520 C.2   134  ALA134      0.2592
     57  O         51.8150   -6.6360  124.6930 O.2   134  ALA134     -0.2718
     58  CB        52.9760   -3.9020  125.6750 C.3   134  ALA134      0.0304
     59  N         50.9570   -6.4680  126.7850 N.am  135  MET135     -0.1965
     60  CA        49.8100   -7.3930  126.5340 C.3   135  MET135      0.1736
     61  C         48.4400   -6.8100  126.9700 C.2   135  MET135      0.2616
     62  O         48.3710   -5.9090  127.8190 O.2   135  MET135     -0.2715
     63  CB        50.0220   -8.6930  127.3190 C.3   135  MET135      0.0427
     64  CG        49.2780   -9.8920  126.7260 C.3   135  MET135      0.0599
     65  SD        49.5280  -11.3910  127.6560 S.3   135  MET135     -0.1393
     66  CE        48.9030  -11.1940  129.3120 C.3   135  MET135      0.0692
     67  N         47.4060   -7.3940  126.3490 N.am  136  TYR136     -0.1974
     68  CA        45.9650   -7.0580  126.5460 C.3   136  TYR136      0.1639
     69  C         45.2530   -8.2570  127.2170 C.2   136  TYR136      0.2290
     70  O         44.7670   -9.1730  126.5390 O.2   136  TYR136     -0.2864
     71  CB        45.3410   -6.7840  125.1550 C.3   136  TYR136      0.0560
     72  CG        43.9160   -6.1790  125.1430 C.ar  136  TYR136     -0.0198
     73  CD1       43.7290   -4.7890  125.2500 C.ar  136  TYR136     -0.0009
     74  CD2       42.7920   -7.0100  124.9980 C.ar  136  TYR136     -0.0009
     75  CE1       42.4350   -4.2410  125.2010 C.ar  136  TYR136      0.0417
     76  CE2       41.5010   -6.4610  124.9450 C.ar  136  TYR136      0.0417
     77  CZ        41.3220   -5.0770  125.0430 C.ar  136  TYR136      0.1957
     78  OH        40.0700   -4.5430  124.9750 O.3   136  TYR136     -0.2866
     79  N         46.7450  -10.5550  122.2640 N.2   158  PRO158     -0.2571
     80  CA        47.7850   -9.7810  121.6220 C.3   158  PRO158      0.2026
     81  C         48.8180   -9.2980  122.5710 C.2   158  PRO158      0.2684
     82  O         48.4670   -8.9330  123.7210 O.2   158  PRO158     -0.2709
     83  CB        47.0500   -8.6320  121.0000 C.2   158  PRO158      0.0085
     84  CG        45.5710   -8.7930  121.3300 C.2   158  PRO158      0.0180
     85  CD        45.3880  -10.0300  122.1570 C.2   158  PRO158      0.0938
     86  N         50.0470   -9.2990  122.0870 N.am  159  SER159     -0.1931
     87  CA        51.1760   -8.7860  122.8640 C.3   159  SER159      0.2055
     88  C         52.4090   -8.5350  121.9910 C.2   159  SER159      0.2642
     89  O         52.8540   -9.4170  121.2420 O.2   159  SER159     -0.2714
     90  CB        51.5560   -9.7570  123.9850 C.3   159  SER159      0.2130
     91  OG        51.6410  -11.0790  123.4870 O.3   159  SER159     -0.2179
     92  N         52.9290   -7.3260  122.1080 N.am  160  VAL160     -0.1977
     93  CA        54.1150   -6.6420  121.7470 C.3   160  VAL160      0.1596
     94  C         55.4060   -6.8280  122.5130 C.2   160  VAL160      0.2287
     95  O         55.4290   -6.7820  123.7520 O.2   160  VAL160     -0.2864
     96  CB        54.0140   -5.1380  121.4900 C.3   160  VAL160      0.0276
     97  CG1       54.4820   -4.7450  120.0860 C.3   160  VAL160      0.0022
     98  CG2       52.5970   -4.5930  121.6340 C.3   160  VAL160      0.0022
     99  N         51.2650    0.5110  116.8600 N.3   170  PHE170     -0.1241
    100  CA        50.2330   -0.3290  116.3000 C.3   170  PHE170      0.1605
    101  C         48.9110    0.4070  116.4410 C.2   170  PHE170      0.2264
    102  O         48.8120    1.4170  117.1550 O.2   170  PHE170     -0.2867
    103  CB        50.2450   -1.6770  117.0190 C.3   170  PHE170      0.0534
    104  CG        49.9830   -1.5800  118.5240 C.ar  170  PHE170     -0.0203
    105  CD1       51.0460   -1.3820  119.4210 C.ar  170  PHE170     -0.0042
    106  CD2       48.6770   -1.7000  119.0030 C.ar  170  PHE170     -0.0042
    107  CE1       50.7930   -1.3120  120.7990 C.ar  170  PHE170     -0.0003
    108  CE2       48.4260   -1.6330  120.3790 C.ar  170  PHE170     -0.0003
    109  CZ        49.4830   -1.4400  121.2770 C.ar  170  PHE170     -0.0000
    110  N         44.2850    0.0980  116.2920 N.3   172  VAL172     -0.1231
    111  CA        43.1110   -0.7170  116.6800 C.3   172  VAL172      0.1681
    112  C         41.7560   -0.1290  116.2580 C.2   172  VAL172      0.2471
    113  O         41.4720    1.0580  116.4820 O.2   172  VAL172     -0.2730
    114  CB        43.0110   -0.8000  118.1970 C.3   172  VAL172      0.0265
    115  CG1       41.7300   -1.4940  118.6570 C.3   172  VAL172      0.0020
    116  CG2       44.1720   -1.5590  118.8340 C.3   172  VAL172      0.0020
    117  N         40.8600   -0.9270  115.6360 N.am  173  PRO173     -0.2506
    118  CA        39.5200   -0.4620  115.3070 C.3   173  PRO173      0.1487
    119  C         38.7680   -0.1370  116.5820 C.2   173  PRO173      0.2276
    120  O         39.3440   -0.3120  117.6980 O.2   173  PRO173     -0.2865
    121  CB        38.8830   -1.6330  114.5990 C.3   173  PRO173      0.0556
    122  CG        39.9000   -2.7620  114.5600 C.2   173  PRO173     -0.0078
    123  CD        41.1590   -2.3040  115.2330 C.2   173  PRO173      0.0634
    124  N         36.6180   -0.9120  119.3230 N.3   175  VAL175     -0.1245
    125  CA        36.2420   -2.1360  120.0710 C.3   175  VAL175      0.1561
    126  C         35.1980   -1.8720  121.1660 C.2   175  VAL175      0.2260
    127  O         35.1400   -2.5880  122.1740 O.2   175  VAL175     -0.2867
    128  CB        37.4480   -2.7400  120.8060 C.3   175  VAL175      0.0252
    129  CG1       38.7470   -1.9580  120.6070 C.3   175  VAL175      0.0019
    130  CG2       37.2420   -2.8040  122.3230 C.3   175  VAL175      0.0019
    131  N         31.5170    5.5730  121.5400 N.3   181  TYR181     -0.1298
    132  CA        31.9540    5.5170  122.9640 C.3   181  TYR181      0.1290
    133  C         31.1770    6.6020  123.6840 C.3   181  TYR181      0.2013
    134  O         31.0750    7.6850  122.9810 O.3   181  TYR181     -0.2188
    135  CB        33.4080    5.8380  123.0710 C.3   181  TYR181      0.0480
    136  CG        34.4120    4.8470  122.5770 C.ar  181  TYR181     -0.0204
    137  CD1       34.4270    3.5180  122.9620 C.ar  181  TYR181     -0.0009
    138  CD2       35.4330    5.2770  121.7520 C.ar  181  TYR181     -0.0009
    139  CE1       35.3860    2.6190  122.5520 C.ar  181  TYR181      0.0417
    140  CE2       36.4230    4.3910  121.3060 C.ar  181  TYR181      0.0417
    141  CZ        36.3580    3.0850  121.7130 C.ar  181  TYR181      0.1957
    142  OH        37.3060    2.2660  121.2040 O.3   181  TYR181     -0.2866
    143  N         30.5060    6.9890  133.6420 N.3   199  ILE199     -0.1245
    144  CA        30.7980    6.1860  132.4500 C.3   199  ILE199      0.1561
    145  C         31.7620    5.0600  132.8250 C.2   199  ILE199      0.2260
    146  O         32.1010    4.2060  131.9920 O.2   199  ILE199     -0.2867
    147  CB        31.4390    7.0780  131.3860 C.3   199  ILE199      0.0252
    148  CG1       32.3540    6.3150  130.4280 C.3   199  ILE199      0.0019
    149  CG2       32.3070    8.1890  131.9840 C.3   199  ILE199      0.0019
    150  CD1       33.3830    7.2170  129.7420 C.3   199  ILE199      0.0001
    151  N         33.0000    2.1500  130.2070 N.3   203  ASN203     -0.1240
    152  CA        34.3910    2.0470  129.7460 C.3   203  ASN203      0.1653
    153  C         35.0310    0.7610  130.2810 C.2   203  ASN203      0.2266
    154  O         35.8780    0.7990  131.1850 O.2   203  ASN203     -0.2867
    155  CB        35.1980    3.2540  130.2380 C.3   203  ASN203      0.1155
    156  CG        36.6810    3.1870  129.8590 C.2   203  ASN203      0.2627
    157  OD1       37.0150    2.8210  128.7320 O.2   203  ASN203     -0.2716
    158  ND2       37.6040    3.5240  130.7410 N.am  203  ASN203     -0.0877
    159  N         37.1860   -2.3310  129.1240 N.3   205  MET205     -0.1245
    160  CA        38.1060   -2.8150  128.1160 C.3   205  MET205      0.1570
    161  C         39.4270   -3.1870  128.7700 C.2   205  MET205      0.2261
    162  O         40.5000   -2.8550  128.2590 O.2   205  MET205     -0.2867
    163  CB        38.3170   -1.7230  127.0670 C.3   205  MET205      0.0387
    164  CG        37.0250   -0.9760  126.7100 C.3   205  MET205      0.0595
    165  SD        37.1390   -0.0940  125.1680 S.3   205  MET205     -0.1393
    166  CE        35.9070    1.1900  125.1020 C.3   205  MET205      0.0692
    167  N         46.1500   -3.0330  130.2840 N.3   208  MET208     -0.1245
    168  CA        47.4110   -3.3600  129.6030 C.3   208  MET208      0.1570
    169  C         48.4740   -3.7360  130.6330 C.2   208  MET208      0.2261
    170  O         48.7150   -3.0000  131.6020 O.2   208  MET208     -0.2867
    171  CB        47.9010   -2.1540  128.8010 C.3   208  MET208      0.0387
    172  CG        47.9650   -2.4250  127.2970 C.3   208  MET208      0.0595
    173  SD        48.2280   -0.9500  126.3360 S.3   208  MET208     -0.1393
    174  CE        49.8990   -0.3750  126.5480 C.3   208  MET208      0.0692
    175  N         48.2600    8.1240  122.3560 N.3   229  HIS229     -0.1241
    176  CA        47.0770    7.6560  121.6110 C.3   229  HIS229      0.1621
    177  C         46.6920    8.6650  120.5550 C.2   229  HIS229      0.2264
    178  O         46.6170    9.8440  120.8590 O.2   229  HIS229     -0.2867
    179  CB        45.9110    7.4160  122.5330 C.3   229  HIS229      0.0745
    180  CG        44.6170    7.2040  121.8230 C.ar  229  HIS229      0.0817
    181  ND1       43.8670    8.2480  121.3150 N.ar  229  HIS229     -0.2268
    182  CD2       43.9330    6.0440  121.5580 C.ar  229  HIS229      0.1154
    183  CE1       42.7490    7.6990  120.7690 C.ar  229  HIS229      0.1986
    184  NE2       42.7730    6.4030  120.9040 N.ar  229  HIS229     -0.2212
@<TRIPOS>BOND
     1   122   121    1
     2   122   123    2
     3   121   118    1
     4   123   117    1
     5   118   117    1
     6   118   119    1
     7   117   112   am
     8    39    38    2
     9    26    27    1
    10    26    29    1
    11    26    25    1
    12    27    28    2
    13    36    37    1
    14   112   113    2
    15   112   111    1
    16   110   111    1
    17   100   101    1
    18   100    99    1
    19   100   103    1
    20   101   102    2
    21   119   120    2
    22    38    37    1
    23   111   114    1
    24    29    30    1
    25   103   104    1
    26    37    40    1
    27   114   115    1
    28   114   116    1
    29    30    31   ar
    30    30    32   ar
    31    40    41    1
    32   104   106   ar
    33   104   105   ar
    34    42    43    1
    35    45    44    2
    36    31    33   ar
    37   106   108   ar
    38    32    34   ar
    39   124   125    1
    40   105   107   ar
    41    44    43    1
    42    43    46    1
    43   125   128    1
    44   125   126    1
    45    97    96    1
    46    33    35   ar
    47   108   109   ar
    48    34    35   ar
    49   177   178    2
    50   177   176    1
    51   129   128    1
    52   183   184   ar
    53   183   181   ar
    54   107   109   ar
    55   128   130    1
    56   184   182   ar
    57    46    47    1
    58    83    84    2
    59    83    80    1
    60   126   127    2
    61   142   141    1
    62    89    88    2
    63   140   141   ar
    64   140   138   ar
    65   181   180   ar
    66    84    85    1
    67    49    47   ar
    68    49    51   ar
    69    96    98    1
    70    96    93    1
    71   131   132    1
    72   182   180   ar
    73   176   175    1
    74   176   179    1
    75    80    79    1
    76    80    81    1
    77   141   139   ar
    78    93    92    1
    79    93    94    1
    80    47    48   ar
    81   138   136   ar
    82   180   179    1
    83    88    92   am
    84    88    87    1
    85    86    81   am
    86    86    87    1
    87    85    79    2
    88    51    52   ar
    89    94    95    2
    90   139   137   ar
    91    81    82    2
    92   136   137   ar
    93   136   135    1
    94    48    50   ar
    95    87    90    1
    96   132   135    1
    97   132   133    1
    98   134   133    1
    99    52    50   ar
   100    52    53    1
   101    91    90    1
   102    24    22    1
   103    57    56    2
   104    76    74   ar
   105    76    77   ar
   106    78    77    1
   107    74    72   ar
   108    77    75   ar
   109   166   165    1
   110    72    71    1
   111    72    73   ar
   112    71    68    1
   113   165   164    1
   114    75    73   ar
   115    23    22    1
   116    22    21    1
   117    58    55    1
   118    56    55    1
   119    56    59   am
   120    54    55    1
   121   173   174    1
   122   173   172    1
   123    67    68    1
   124    67    61   am
   125    60    59    1
   126    60    61    1
   127    60    63    1
   128    70    69    2
   129    68    69    1
   130   164   163    1
   131    64    63    1
   132    64    65    1
   133    21    18    1
   134    61    62    2
   135   163   160    1
   136   172   171    1
   137     6     8    1
   138     6     5    1
   139    12    11    2
   140    65    66    1
   141    20    19    2
   142    18    19    1
   143    18    17    1
   144     7     5    1
   145   160   161    1
   146   160   159    1
   147   162   161    2
   148    11    17   am
   149    11    10    1
   150     5     2    1
   151   157   156    2
   152   171   168    1
   153   168   167    1
   154   168   169    1
   155   150   148    1
   156   152   151    1
   157   152   155    1
   158   152   153    1
   159     9    10    1
   160     9     3   am
   161     2     3    1
   162     2     1    1
   163   156   155    1
   164   156   158   am
   165    10    13    1
   166     3     4    2
   167   153   154    2
   168   148   147    1
   169   169   170    2
   170    13    14    1
   171   147   149    1
   172   147   144    1
   173   146   145    2
   174    14    16   am
   175    14    15    2
   176   144   145    1
   177   144   143    1
