@<TRIPOS>MOLECULE
tmp/1hrnB00.pdb
 224 212 0 0 0
SMALL
GASTEIGER

@<TRIPOS>ATOM
      1  N         53.5070   79.7740   67.7990 N.3    15  THR15      -0.1203
      2  CA        54.1250   81.1000   67.9410 C.3    15  THR15       0.1994
      3  C         53.5050   82.2220   67.0950 C.2    15  THR15       0.2617
      4  O         53.6890   83.4110   67.3890 O.2    15  THR15      -0.2717
      5  CB        55.6540   81.0860   67.7770 C.3    15  THR15       0.1784
      6  OG1       55.9650   80.9580   66.4410 O.3    15  THR15      -0.2211
      7  CG2       56.3440   79.9890   68.5580 C.3    15  THR15       0.0376
      8  N         52.8110   81.8390   66.0410 N.am   16  GLN16      -0.1979
      9  CA        52.1320   82.7780   65.1920 C.3    16  GLN16       0.1601
     10  C         50.7230   82.2950   64.8790 C.2    16  GLN16       0.2287
     11  O         50.5130   81.1690   64.4130 O.2    16  GLN16      -0.2864
     12  CB        52.8890   83.0740   63.9190 C.3    16  GLN16       0.0394
     13  CG        54.3630   83.4810   64.1380 C.3    16  GLN16       0.0908
     14  CD        55.0370   83.8480   62.7930 C.2    16  GLN16       0.2608
     15  OE1       54.3960   84.3440   61.8270 O.2    16  GLN16      -0.2717
     16  NE2       56.3460   83.6200   62.7090 N.am   16  GLN16      -0.0878
     17  N         47.6420   89.2770   62.0770 N.3    33  VAL33      -0.1245
     18  CA        47.5900   88.8620   63.4340 C.3    33  VAL33       0.1561
     19  C         46.5830   89.7850   64.1110 C.2    33  VAL33       0.2260
     20  O         46.5800   90.9540   63.7900 O.2    33  VAL33      -0.2867
     21  CB        48.9350   88.9990   64.0950 C.3    33  VAL33       0.0252
     22  CG1       48.7350   89.0500   65.6180 C.3    33  VAL33       0.0019
     23  CG2       49.8210   87.8280   63.6630 C.3    33  VAL33       0.0019
     24  N         45.7860   91.5910   67.2290 N.3    35  ASP35      -0.1239
     25  CA        46.5600   91.9990   68.4080 C.3    35  ASP35       0.1674
     26  C         45.8300   92.8900   69.4400 C.2    35  ASP35       0.2266
     27  O         45.5740   94.0410   69.1760 O.2    35  ASP35      -0.2867
     28  CB        47.8550   92.7240   67.8980 C.3    35  ASP35       0.1410
     29  CG        48.8890   93.0530   68.9480 C.2    35  ASP35       0.3668
     30  OD1       49.0360   92.4870   69.9940 O.co2  35  ASP35      -0.2456
     31  OD2       49.6240   94.0870   68.6330 O.co2  35  ASP35      -0.2456
     32  N         47.2800   93.8880   72.0580 N.3    37  GLY37      -0.1210
     33  CA        48.2980   94.7600   72.5890 C.3    37  GLY37       0.1956
     34  C         48.4570   96.0640   71.8050 C.2    37  GLY37       0.2612
     35  O         49.2660   96.9030   72.1530 O.2    37  GLY37      -0.2717
     36  N         47.6990   96.2460   70.7130 N.am   38  SER38      -0.1952
     37  CA        47.7810   97.4400   69.8550 C.3    38  SER38       0.1924
     38  C         46.4600   97.7370   69.1750 C.2    38  SER38       0.2314
     39  O         45.5040   96.9730   69.2490 O.2    38  SER38      -0.2863
     40  CB        48.9500   97.3520   68.8830 C.3    38  SER38       0.2116
     41  OG        48.6490   96.4180   67.8510 O.3    38  SER38      -0.2180
     42  N         47.1590   97.4470   59.8730 N.3    42  TRP42      -0.1241
     43  CA        48.1760   97.7420   58.8920 C.3    42  TRP42       0.1605
     44  C         48.4620   96.5640   58.0230 C.2    42  TRP42       0.2264
     45  O         48.4360   95.4560   58.5280 O.2    42  TRP42      -0.2867
     46  CB        49.5250   98.2710   59.4720 C.3    42  TRP42       0.0550
     47  CG        50.4740   97.3150   60.1650 C.ar   42  TRP42       0.0003
     48  CD1       50.6850   97.3180   61.5170 C.ar   42  TRP42       0.0946
     49  CD2       51.4730   96.4010   59.6420 C.ar   42  TRP42       0.0152
     50  NE1       51.6520   96.4030   61.8510 N.ar   42  TRP42      -0.2442
     51  CE2       52.1690   95.8540   60.7340 C.ar   42  TRP42       0.0810
     52  CE3       51.8030   95.9700   58.3730 C.ar   42  TRP42       0.0012
     53  CZ2       53.1640   94.9040   60.5930 C.ar   42  TRP42       0.0191
     54  CZ3       52.8100   95.0800   58.2100 C.ar   42  TRP42       0.0001
     55  CH2       53.4900   94.5360   59.3150 C.ar   42  TRP42       0.0015
     56  N         55.1070  101.4150   66.3030 N.3    79  ARG79      -0.1231
     57  CA        56.1330  100.8470   67.1770 C.3    79  ARG79       0.1694
     58  C         55.5790   99.7660   68.1350 C.2    79  ARG79       0.2592
     59  O         54.6410  100.0040   68.9310 O.2    79  ARG79      -0.2718
     60  CB        56.9520  101.9600   67.8710 C.3    79  ARG79       0.0321
     61  CG        57.9400  101.4530   68.9470 C.3    79  ARG79       0.0489
     62  CD        58.7190  102.5300   69.6140 C.3    79  ARG79       0.2205
     63  NE        59.5860  103.2340   68.6550 N.pl3  79  ARG79      -0.0865
     64  CZ        59.3000  104.5110   68.2570 C.cat  79  ARG79       0.5346
     65  NH1       58.2820  105.2610   68.7100 N.pl3  79  ARG79       0.1354
     66  NH2       60.1370  105.0540   67.3230 N.pl3  79  ARG79       0.1354
     67  N         56.1230   98.5550   68.0060 N.am   80  TYR80      -0.1962
     68  CA        55.7290   97.4450   68.8440 C.3    80  TYR80       0.1771
     69  C         56.9540   97.0500   69.5910 C.2    80  TYR80       0.2620
     70  O         57.9560   97.7280   69.5220 O.2    80  TYR80      -0.2715
     71  CB        55.2360   96.2240   68.0390 C.3    80  TYR80       0.0574
     72  CG        54.1400   96.6010   67.0730 C.ar   80  TYR80      -0.0198
     73  CD1       52.8160   96.7190   67.5130 C.ar   80  TYR80      -0.0009
     74  CD2       54.4240   96.8980   65.7360 C.ar   80  TYR80      -0.0009
     75  CE1       51.7840   97.0690   66.6420 C.ar   80  TYR80       0.0417
     76  CE2       53.3950   97.2270   64.8530 C.ar   80  TYR80       0.0417
     77  CZ        52.0830   97.3340   65.3090 C.ar   80  TYR80       0.1957
     78  OH        51.0850   97.7680   64.4970 O.3    80  TYR80      -0.2866
     79  N         56.9010   95.9660   70.2950 N.am   81  SER81      -0.1936
     80  CA        58.0710   95.5850   71.0120 C.3    81  SER81       0.2055
     81  C         59.1320   95.0800   70.0660 C.2    81  SER81       0.2643
     82  O         60.2670   95.5360   70.0870 O.2    81  SER81      -0.2714
     83  CB        57.7510   94.5630   72.1090 C.3    81  SER81       0.2130
     84  OG        56.5300   94.8790   72.7720 O.3    81  SER81      -0.2179
     85  N         58.7510   94.1450   69.2270 N.am   82  THR82      -0.1950
     86  CA        59.6710   93.5520   68.3040 C.3    82  THR82       0.1897
     87  C         60.1970   94.5440   67.3030 C.2    82  THR82       0.2313
     88  O         61.3470   94.4380   66.8720 O.2    82  THR82      -0.2863
     89  CB        58.9770   92.4350   67.5320 C.3    82  THR82       0.1794
     90  OG1       57.6380   92.8430   67.2670 O.3    82  THR82      -0.2208
     91  CG2       59.0390   91.1880   68.4060 C.3    82  THR82       0.0378
     92  N         61.6850   92.3560   62.4880 N.3   115  PRO115     -0.2102
     93  CA        61.4520   90.9100   62.5140 C.3   115  PRO115      0.1504
     94  C         60.6640   90.4430   61.2920 C.2   115  PRO115      0.2575
     95  O         60.4270   89.2540   61.0590 O.2   115  PRO115     -0.2718
     96  CB        60.5140   90.7290   63.7280 C.3   115  PRO115      0.0282
     97  CG        59.9590   92.1130   64.0960 C.3   115  PRO115      0.0208
     98  CD        60.6570   93.1490   63.2340 C.3   115  PRO115      0.0893
     99  N         60.1440   91.4080   60.5690 N.am  116  PHE116     -0.1977
    100  CA        59.2640   91.1640   59.4690 C.3   116  PHE116      0.1639
    101  C         59.5030   89.9870   58.5580 C.2   116  PHE116      0.2290
    102  O         58.5720   89.4110   58.0360 O.2   116  PHE116     -0.2864
    103  CB        58.5930   92.4300   58.9230 C.3   116  PHE116      0.0560
    104  CG        58.1320   93.2730   60.1100 C.ar  116  PHE116     -0.0200
    105  CD1       57.0320   92.8940   60.8930 C.ar  116  PHE116     -0.0042
    106  CD2       58.8630   94.3900   60.5180 C.ar  116  PHE116     -0.0042
    107  CE1       56.6390   93.6120   62.0290 C.ar  116  PHE116     -0.0003
    108  CE2       58.4980   95.1270   61.6480 C.ar  116  PHE116     -0.0003
    109  CZ        57.3750   94.7460   62.3930 C.ar  116  PHE116     -0.0000
    110  N         60.4160   87.1740   59.4780 N.3   118  LEU118     -0.1231
    111  CA        60.0710   86.0070   60.2560 C.3   118  LEU118      0.1693
    112  C         58.5560   85.8150   60.3130 C.2   118  LEU118      0.2591
    113  O         58.0690   84.7330   60.6080 O.2   118  LEU118     -0.2718
    114  CB        60.6780   86.0260   61.6910 C.3   118  LEU118      0.0284
    115  CG        61.9960   85.2410   61.8310 C.3   118  LEU118      0.0019
    116  CD1       63.0140   85.6470   60.7520 C.3   118  LEU118      0.0001
    117  CD2       62.5970   85.3600   63.2340 C.3   118  LEU118      0.0001
    118  N         57.8240   86.8700   59.9290 N.am  119  ALA119     -0.1980
    119  CA        56.3830   86.8870   59.9140 C.3   119  ALA119      0.1597
    120  C         55.7290   86.0570   58.8010 C.2   119  ALA119      0.2287
    121  O         55.9020   86.3900   57.6290 O.2   119  ALA119     -0.2864
    122  CB        55.9610   88.3260   59.7830 C.3   119  ALA119      0.0319
    123  N         52.7060   86.0720   58.3350 N.3   121  PHE121     -0.1241
    124  CA        51.5510   86.8520   58.0470 C.3   121  PHE121      0.1605
    125  C         51.9540   88.1430   57.3820 C.2   121  PHE121      0.2264
    126  O         53.1210   88.5460   57.3660 O.2   121  PHE121     -0.2867
    127  CB        50.7450   87.1140   59.3420 C.3   121  PHE121      0.0534
    128  CG        51.6320   87.5470   60.4960 C.ar  121  PHE121     -0.0203
    129  CD1       52.3460   86.6100   61.2420 C.ar  121  PHE121     -0.0042
    130  CD2       51.7920   88.9050   60.7870 C.ar  121  PHE121     -0.0042
    131  CE1       53.2050   87.0350   62.2550 C.ar  121  PHE121     -0.0003
    132  CE2       52.6730   89.3420   61.7740 C.ar  121  PHE121     -0.0003
    133  CZ        53.4080   88.3930   62.4840 C.ar  121  PHE121     -0.0000
    134  N         48.7300   93.3740   60.6270 N.3   124  VAL124     -0.1245
    135  CA        48.0850   93.3650   61.9290 C.3   124  VAL124      0.1561
    136  C         46.7790   94.1170   62.0010 C.2   124  VAL124      0.2260
    137  O         46.5740   95.1880   61.3800 O.2   124  VAL124     -0.2867
    138  CB        49.0060   93.5220   63.1840 C.3   124  VAL124      0.0252
    139  CG1       50.4980   93.6300   62.9890 C.3   124  VAL124      0.0019
    140  CG2       48.5400   94.5480   64.1790 C.3   124  VAL124      0.0019
    141  N         43.8060  100.0050   77.8660 N.3   194  VAL194     -0.1245
    142  CA        44.7720   98.9020   77.6480 C.3   194  VAL194      0.1561
    143  C         44.0590   97.6470   78.1280 C.2   194  VAL194      0.2260
    144  O         43.3040   97.7090   79.1140 O.2   194  VAL194     -0.2867
    145  CB        46.0030   98.9820   78.5190 C.3   194  VAL194      0.0252
    146  CG1       47.3460   98.6020   77.9410 C.3   194  VAL194      0.0019
    147  CG2       46.0170  100.2080   79.3320 C.3   194  VAL194      0.0019
    148  N         49.2230   92.2510   80.9560 N.3   218  LEU218     -0.1245
    149  CA        48.5800   92.6180   79.7130 C.3   218  LEU218      0.1561
    150  C         48.1130   91.2720   79.0990 C.2   218  LEU218      0.2260
    151  O         48.9380   90.3470   78.9730 O.2   218  LEU218     -0.2867
    152  CB        49.7440   93.1600   78.8090 C.3   218  LEU218      0.0270
    153  CG        49.6860   94.3730   77.8910 C.3   218  LEU218      0.0019
    154  CD1       50.6160   94.1510   76.7170 C.3   218  LEU218      0.0001
    155  CD2       48.3230   94.8080   77.4220 C.3   218  LEU218      0.0001
    156  N         47.5800   89.6580   75.9570 N.3   220  ASP220     -0.1239
    157  CA        48.0190   90.0640   74.6350 C.3   220  ASP220      0.1674
    158  C         47.9380   88.9990   73.5440 C.2   220  ASP220      0.2266
    159  O         48.7760   88.0860   73.4730 O.2   220  ASP220     -0.2867
    160  CB        49.4750   90.5500   74.8150 C.3   220  ASP220      0.1410
    161  CG        50.0200   91.2510   73.5950 C.2   220  ASP220      0.3668
    162  OD1       49.1980   91.3280   72.5760 O.co2 220  ASP220     -0.2456
    163  OD2       51.0870   91.8150   73.6240 O.co2 220  ASP220     -0.2456
    164  N         48.5730   89.2060   70.6430 N.3   222  GLY222     -0.1210
    165  CA        49.5620   89.3350   69.6220 C.3   222  GLY222      0.1956
    166  C         50.9350   88.9690   70.0920 C.2   222  GLY222      0.2612
    167  O         51.8500   89.2070   69.3090 O.2   222  GLY222     -0.2717
    168  N         51.0770   88.3930   71.3200 N.am  223  ALA223     -0.1965
    169  CA        52.3440   87.9630   71.8680 C.3   223  ALA223      0.1728
    170  C         52.4140   86.4670   71.8830 C.2   223  ALA223      0.2617
    171  O         51.4500   85.8290   72.2980 O.2   223  ALA223     -0.2715
    172  CB        52.4970   88.4620   73.2810 C.3   223  ALA223      0.0334
    173  N         53.5580   85.8810   71.5200 N.am  224  SER224     -0.1936
    174  CA        53.6710   84.4330   71.4350 C.3   224  SER224      0.2055
    175  C         53.6600   83.7340   72.7870 C.2   224  SER224      0.2643
    176  O         53.1120   82.6560   72.9100 O.2   224  SER224     -0.2714
    177  CB        54.9440   84.0010   70.6950 C.3   224  SER224      0.2130
    178  OG        55.0670   84.4880   69.3560 O.3   224  SER224     -0.2179
    179  N         54.3960   84.3030   73.7840 N.am  225  TYR225     -0.1973
    180  CA        54.5780   83.6290   75.0750 C.3   225  TYR225      0.1639
    181  C         54.0220   84.3530   76.2610 C.2   225  TYR225      0.2290
    182  O         53.3700   85.4110   76.2050 O.2   225  TYR225     -0.2864
    183  CB        56.0870   83.4680   75.3520 C.3   225  TYR225      0.0560
    184  CG        56.8570   82.9740   74.1360 C.ar  225  TYR225     -0.0198
    185  CD1       56.7040   81.6710   73.6960 C.ar  225  TYR225     -0.0009
    186  CD2       57.6970   83.8040   73.4000 C.ar  225  TYR225     -0.0009
    187  CE1       57.3140   81.2370   72.5250 C.ar  225  TYR225      0.0417
    188  CE2       58.4020   83.3730   72.2810 C.ar  225  TYR225      0.0417
    189  CZ        58.1770   82.0780   71.8330 C.ar  225  TYR225      0.1957
    190  OH        58.8860   81.5860   70.7450 O.3   225  TYR225     -0.2866
    191  N         55.2550   86.3930   79.2080 N.3   227  SER227     -0.1217
    192  CA        56.5330   86.9770   79.4910 C.3   227  SER227      0.1889
    193  C         56.4610   87.7780   80.7900 C.2   227  SER227      0.2288
    194  O         55.3680   88.1020   81.2620 O.2   227  SER227     -0.2866
    195  CB        57.0480   87.8100   78.3260 C.3   227  SER227      0.2089
    196  OG        56.1330   88.8650   77.9920 O.3   227  SER227     -0.2183
    197  N         60.5020   89.7500   78.9640 N.3   297  MET297     -0.1245
    198  CA        60.2210   90.8120   78.1170 C.3   297  MET297      0.1570
    199  C         60.0760   92.0700   78.9200 C.2   297  MET297      0.2261
    200  O         59.1890   92.2010   79.6970 O.2   297  MET297     -0.2867
    201  CB        59.0490   90.4410   77.2300 C.3   297  MET297      0.0387
    202  CG        59.2260   90.9750   75.8180 C.3   297  MET297      0.0595
    203  SD        60.3390   89.9800   74.7430 S.3   297  MET297     -0.1393
    204  CE        59.4650   88.3550   74.8220 C.3   297  MET297      0.0692
    205  N         59.0000   95.3900   79.1900 N.3   299  ILE299     -0.1245
    206  CA        58.1190   96.3010   78.4770 C.3   299  ILE299      0.1561
    207  C         58.2060   97.6830   79.1160 C.2   299  ILE299      0.2260
    208  O         58.0830   97.8140   80.3600 O.2   299  ILE299     -0.2867
    209  CB        56.6690   95.7630   78.4600 C.3   299  ILE299      0.0252
    210  CG1       56.5310   94.4580   77.6570 C.3   299  ILE299      0.0019
    211  CG2       55.7220   96.8110   77.8850 C.3   299  ILE299      0.0019
    212  CD1       55.2410   93.6650   77.9500 C.3   299  ILE299      0.0001
    213  N         53.1550  101.4210   79.6170 N.3   303  THR303     -0.1218
    214  CA        52.4720  100.1260   79.7680 C.3   303  THR303      0.1862
    215  C         53.0750   99.1550   80.7650 C.2   303  THR303      0.2287
    216  O         52.3470   98.4870   81.5120 O.2   303  THR303     -0.2866
    217  CB        52.1290   99.4110   78.4520 C.3   303  THR303      0.1770
    218  OG1       51.6980  100.3230   77.4630 O.3   303  THR303     -0.2211
    219  CG2       51.0480   98.3760   78.7150 C.3   303  THR303      0.0375
    220  N         53.1590   89.7790   80.2110 N.3   308  ALA308     -0.1245
    221  CA        52.2760   89.7070   79.0740 C.3   308  ALA308      0.1562
    222  C         51.8080   88.2520   78.9530 C.2   308  ALA308      0.2260
    223  O         52.6090   87.3060   78.8980 O.2   308  ALA308     -0.2867
    224  CB        52.9400   90.1880   77.7940 C.3   308  ALA308      0.0290
@<TRIPOS>BOND
     1   126   125    2
     2   125   124    1
     3   121   120    2
     4    44    45    2
     5    44    43    1
     6   102   101    2
     7   124   123    1
     8   124   127    1
     9    54    52   ar
    10    54    55   ar
    11    52    49   ar
    12   101   100    1
    13   120   119    1
    14    43    46    1
    15    43    42    1
    16   103   100    1
    17   103   104    1
    18    55    53   ar
    19   127   128    1
    20   100    99    1
    21    46    47    1
    22   110   111    1
    23    49    47   ar
    24    49    51   ar
    25   122   119    1
    26   119   118    1
    27   118   112   am
    28   104   106   ar
    29   104   105   ar
    30    47    48   ar
    31   111   112    1
    32   111   114    1
    33   112   113    2
    34   128   130   ar
    35   128   129   ar
    36   106   108   ar
    37    99    94   am
    38    53    51   ar
    39   134   135    1
    40    51    50   ar
    41   116   115    1
    42   130   132   ar
    43   105   107   ar
    44    95    94    2
    45   129   131   ar
    46    94    93    1
    47   137   136    2
    48    48    50   ar
    49   108   109   ar
    50   114   115    1
    51   132   133   ar
    52    15    14    2
    53   115   117    1
    54   135   136    1
    55   135   138    1
    56   107   109   ar
    57    17    18    1
    58   131   133   ar
    59    92    93    1
    60    92    98    1
    61    93    96    1
    62    16    14   am
    63    14    13    1
    64   139   138    1
    65   138   140    1
    66    98    97    1
    67    18    21    1
    68    18    19    1
    69    23    21    1
    70    96    97    1
    71    20    19    2
    72    12    13    1
    73    12     9    1
    74    21    22    1
    75    11    10    2
    76    78    77    1
    77    76    77   ar
    78    76    74   ar
    79    10     9    1
    80     9     8    1
    81    77    75   ar
    82    74    72   ar
    83     8     3   am
    84    56    57    1
    85     6     5    1
    86    75    73   ar
    87    88    87    2
    88    72    73   ar
    89    72    71    1
    90     3     4    2
    91     3     2    1
    92    57    60    1
    93    57    58    1
    94    24    25    1
    95    90    89    1
    96    87    86    1
    97    66    64    1
    98    89    86    1
    99    89    91    1
   100     5     2    1
   101     5     7    1
   102     1     2    1
   103    41    40    1
   104    60    61    1
   105    28    25    1
   106    28    29    1
   107    67    58   am
   108    67    68    1
   109    71    68    1
   110    58    59    2
   111    64    63    2
   112    64    65    1
   113    86    85    1
   114    25    26    1
   115    31    29   ar
   116    63    62    1
   117    68    69    1
   118    40    37    1
   119    61    62    1
   120    29    30   ar
   121    38    39    2
   122    38    37    1
   123    27    26    2
   124    85    81   am
   125   167   166    2
   126   178   177    1
   127    70    69    2
   128    69    79   am
   129   165   166    1
   130   165   164    1
   131    37    36    1
   132    81    82    2
   133    81    80    1
   134   166   168   am
   135    79    80    1
   136   177   174    1
   137    36    34   am
   138   190   189    1
   139    80    83    1
   140   168   169    1
   141   174   173    1
   142   174   175    1
   143   173   170   am
   144    34    35    2
   145    34    33    1
   146   189   188   ar
   147   189   187   ar
   148   169   170    1
   149   169   172    1
   150   170   171    2
   151    32    33    1
   152    83    84    1
   153   188   186   ar
   154   187   185   ar
   155   162   161   ar
   156   175   176    2
   157   175   179   am
   158   186   184   ar
   159   159   158    2
   160   158   157    1
   161   161   163   ar
   162   161   160    1
   163   185   184   ar
   164   179   180    1
   165   184   183    1
   166   157   160    1
   167   157   156    1
   168   203   204    1
   169   203   202    1
   170   180   183    1
   171   180   181    1
   172   202   201    1
   173   182   181    2
   174   154   153    1
   175   201   198    1
   176   155   153    1
   177   218   217    1
   178   142   141    1
   179   142   143    1
   180   142   145    1
   181   210   212    1
   182   210   209    1
   183   224   221    1
   184   211   209    1
   185   153   152    1
   186   146   145    1
   187   196   195    1
   188   198   199    1
   189   198   197    1
   190   143   144    2
   191   195   192    1
   192   217   219    1
   193   217   214    1
   194   209   206    1
   195   206   207    1
   196   206   205    1
   197   145   147    1
   198   152   149    1
   199   223   222    2
   200   199   200    2
   201   222   221    1
   202   151   150    2
   203   221   220    1
   204   150   149    1
   205   207   208    2
   206   191   192    1
   207   192   193    1
   208   213   214    1
   209   149   148    1
   210   214   215    1
   211   215   216    2
   212   193   194    2
