@<TRIPOS>MOLECULE
tmp/1hroA00.pdb
 235 227 0 0 0
SMALL
GASTEIGER

@<TRIPOS>ATOM
      1  N        -11.2560   62.9630   12.7190 N.3    17  ILE17      -0.1231
      2  CA       -10.7320   61.6920   13.1340 C.3    17  ILE17       0.1692
      3  C         -9.2400   61.5620   12.9510 C.2    17  ILE17       0.2592
      4  O         -8.4950   61.4330   13.9070 O.2    17  ILE17      -0.2718
      5  CB       -11.4310   60.5970   12.2900 C.3    17  ILE17       0.0266
      6  CG1      -12.9470   60.7020   12.3250 C.3    17  ILE17       0.0019
      7  CG2      -11.0750   59.2040   12.7360 C.3    17  ILE17       0.0020
      8  CD1      -13.6150   59.6700   11.4380 C.3    17  ILE17       0.0001
      9  N         -8.8290   61.5370   11.6840 N.am   18  CYS18      -0.1970
     10  CA        -7.4210   61.3440   11.3010 C.3    18  CYS18       0.1712
     11  C         -6.4800   62.4250   11.8200 C.2    18  CYS18       0.2296
     12  O         -5.3140   62.1630   12.1750 O.2    18  CYS18      -0.2864
     13  CB        -7.2690   61.2360    9.7420 C.3    18  CYS18       0.0983
     14  SG        -8.3220   59.9460    9.0240 S.3    18  CYS18      -0.0798
     15  N         -6.3250   63.9560   14.3740 N.3    20  THR20      -0.1203
     16  CA        -5.9300   63.8170   15.7680 C.3    20  THR20       0.1994
     17  C         -4.4910   63.3090   15.8770 C.2    20  THR20       0.2618
     18  O         -3.7780   63.5620   16.8480 O.2    20  THR20      -0.2717
     19  CB        -6.9020   62.8740   16.5110 C.3    20  THR20       0.1784
     20  OG1       -8.1880   63.4830   16.6260 O.3    20  THR20      -0.2211
     21  CG2       -6.4310   62.5050   17.9290 C.3    20  THR20       0.0376
     22  N         -4.0630   62.5630   14.8460 N.am   21  CYS21      -0.1955
     23  CA        -2.7190   61.9560   14.8120 C.3    21  CYS21       0.1843
     24  C         -1.9330   62.3050   13.5490 C.2    21  CYS21       0.2625
     25  O         -0.6810   62.2760   13.4950 O.2    21  CYS21      -0.2714
     26  CB        -2.7690   60.4450   14.8820 C.3    21  CYS21       0.0997
     27  SG        -3.3850   59.8570   16.5020 S.3    21  CYS21      -0.0797
     28  N         -2.6540   62.6460   12.4810 N.am   22  HIS22      -0.1973
     29  CA        -2.0470   63.0080   11.1780 C.3    22  HIS22       0.1656
     30  C         -2.4150   64.4250   10.6910 C.2    22  HIS22       0.2291
     31  O         -3.2970   65.1180   11.2360 O.2    22  HIS22      -0.2864
     32  CB        -2.5470   62.0810   10.0600 C.3    22  HIS22       0.0771
     33  CG        -2.3090   60.5990   10.3250 C.ar   22  HIS22       0.0820
     34  ND1       -1.0830   59.9900   10.0520 N.ar   22  HIS22      -0.2267
     35  CD2       -3.1240   59.6390   10.7900 C.ar   22  HIS22       0.1154
     36  CE1       -1.1830   58.7200   10.3750 C.ar   22  HIS22       0.1986
     37  NE2       -2.3960   58.4770   10.8350 N.ar   22  HIS22      -0.2212
     38  N          2.1380   62.7310   15.3340 N.3    31  VAL31      -0.1231
     39  CA         2.1950   61.4270   16.0030 C.3    31  VAL31       0.1692
     40  C          2.3180   60.3950   14.9060 C.2    31  VAL31       0.2593
     41  O          2.9740   59.3620   15.0600 O.2    31  VAL31      -0.2718
     42  CB         0.9260   61.2290   16.8510 C.3    31  VAL31       0.0266
     43  CG1        0.5790   59.7710   17.1650 C.3    31  VAL31       0.0020
     44  CG2        0.9470   62.1260   18.0910 C.3    31  VAL31       0.0020
     45  N          1.6370   60.7130   13.8000 N.am   32  GLY32      -0.1943
     46  CA         1.6220   59.9030   12.5800 C.3    32  GLY32       0.1998
     47  C          2.2680   60.7110   11.4100 C.2    32  GLY32       0.2480
     48  O          2.4090   61.9550   11.4910 O.2    32  GLY32      -0.2729
     49  N          2.6630   60.0360   10.3030 N.am   33  PRO33      -0.2726
     50  CA         3.2890   60.7220    9.1700 C.3    33  PRO33       0.1402
     51  C          2.2690   61.5190    8.3420 C.2    33  PRO33       0.2269
     52  O          1.0880   61.2490    8.3660 O.2    33  PRO33      -0.2865
     53  CB         3.9150   59.6040    8.2890 C.3    33  PRO33       0.0296
     54  CG         3.1750   58.3120    8.7010 C.3    33  PRO33       0.0237
     55  CD         2.5940   58.5500   10.0570 C.3    33  PRO33       0.0939
     56  N         -0.2890   62.5300    5.7160 N.3    35  LEU35      -0.1245
     57  CA        -1.0880   61.7440    4.7750 C.3    35  LEU35       0.1561
     58  C         -1.1800   62.4000    3.3750 C.2    35  LEU35       0.2260
     59  O         -1.8480   61.8960    2.4650 O.2    35  LEU35      -0.2867
     60  CB        -2.4360   61.3540    5.3460 C.3    35  LEU35       0.0270
     61  CG        -2.2930   60.3870    6.5400 C.3    35  LEU35       0.0019
     62  CD1       -3.6540   59.8310    6.9550 C.3    35  LEU35       0.0001
     63  CD2       -1.3460   59.2580    6.2010 C.3    35  LEU35       0.0001
     64  N         -0.4120   60.3570    0.2050 N.3    38  VAL38      -0.1245
     65  CA        -0.3020   58.9600    0.6440 C.3    38  VAL38       0.1561
     66  C         -0.7500   57.8680   -0.3670 C.2    38  VAL38       0.2260
     67  O         -0.2660   56.7010   -0.3460 O.2    38  VAL38      -0.2867
     68  CB        -0.9040   58.7430    2.0380 C.3    38  VAL38       0.0252
     69  CG1       -2.4300   58.8910    1.9770 C.3    38  VAL38       0.0019
     70  CG2       -0.5150   57.3520    2.5510 C.3    38  VAL38       0.0019
     71  N          1.5390   55.8070   -2.4540 N.3    41  ARG41      -0.1245
     72  CA         2.8570   55.8160   -1.8560 C.3    41  ARG41       0.1563
     73  C          3.1530   54.4600   -1.2230 C.2    41  ARG41       0.2260
     74  O          2.2440   53.7240   -0.7520 O.2    41  ARG41      -0.2867
     75  CB         2.8090   56.8540   -0.7290 C.3    41  ARG41       0.0307
     76  CG         4.1180   57.3080   -0.0660 C.3    41  ARG41       0.0489
     77  CD         3.9360   58.6100    0.7340 C.3    41  ARG41       0.2205
     78  NE         3.7120   58.4650    2.1990 N.pl3  41  ARG41      -0.0865
     79  CZ         3.0610   59.3770    2.9900 C.cat  41  ARG41       0.5346
     80  NH1        2.5040   60.5140    2.5470 N.pl3  41  ARG41       0.1354
     81  NH2        2.9250   59.1580    4.2830 N.pl3  41  ARG41       0.1354
     82  N          4.6360   52.2740    1.7930 N.3    43  SER43      -0.1202
     83  CA         4.7010   52.4510    3.2210 C.3    43  SER43       0.2020
     84  C          6.1360   52.7810    3.6660 C.2    43  SER43       0.2619
     85  O          7.0970   52.4720    2.9670 O.2    43  SER43      -0.2717
     86  CB         4.2020   51.2210    3.9510 C.3    43  SER43       0.2103
     87  OG         4.7940   50.0980    3.3970 O.3    43  SER43      -0.2182
     88  N          6.2350   53.4000    4.8610 N.am   44  GLY44      -0.1942
     89  CA         7.4730   53.7900    5.5340 C.3    44  GLY44       0.2014
     90  C          8.4390   54.7440    4.7890 C.2    44  GLY44       0.2638
     91  O          9.6500   54.7360    5.0230 O.2    44  GLY44      -0.2714
     92  N          7.9490   55.6220    3.9380 N.am   45  ILE45      -0.1977
     93  CA         8.9140   56.4380    3.2640 C.3    45  ILE45       0.1596
     94  C          8.8660   57.9250    3.5550 C.2    45  ILE45       0.2287
     95  O          9.6900   58.6990    3.0940 O.2    45  ILE45      -0.2864
     96  CB         8.9830   56.1120    1.7830 C.3    45  ILE45       0.0276
     97  CG1        7.7230   56.6400    1.0930 C.3    45  ILE45       0.0022
     98  CG2        9.1400   54.5900    1.6020 C.3    45  ILE45       0.0022
     99  CD1        7.8720   56.9170   -0.4120 C.3    45  ILE45       0.0001
    100  N         10.0490   60.7510    9.4180 N.3    49  TYR49      -0.1241
    101  CA         9.0690   60.1450   10.3180 C.3    49  TYR49       0.1605
    102  C          9.5850   58.8620   10.9490 C.2    49  TYR49       0.2264
    103  O         10.2100   58.0380   10.3050 O.2    49  TYR49      -0.2867
    104  CB         7.7050   59.8900    9.6530 C.3    49  TYR49       0.0534
    105  CG         6.8180   59.2150   10.6240 C.ar   49  TYR49      -0.0201
    106  CD1        6.1310   60.0040   11.5430 C.ar   49  TYR49      -0.0009
    107  CD2        6.7520   57.8220   10.7130 C.ar   49  TYR49      -0.0009
    108  CE1        5.3480   59.4380   12.5380 C.ar   49  TYR49       0.0417
    109  CE2        5.9710   57.2200   11.6960 C.ar   49  TYR49       0.0417
    110  CZ         5.2800   58.0470   12.5870 C.ar   49  TYR49       0.1957
    111  OH         4.5140   57.5010   13.5270 O.3    49  TYR49      -0.2866
    112  N          8.8240   55.5640   11.7980 N.3    51  TYR51      -0.1227
    113  CA         7.9700   54.4260   11.5270 C.3    51  TYR51       0.1736
    114  C          8.3340   53.2800   12.4190 C.2    51  TYR51       0.2596
    115  O          9.4100   53.2030   12.9760 O.2    51  TYR51      -0.2718
    116  CB         8.1320   53.8870   10.0470 C.3    51  TYR51       0.0548
    117  CG         7.4890   54.7740    8.9890 C.ar   51  TYR51      -0.0200
    118  CD1        6.1400   54.6610    8.6540 C.ar   51  TYR51      -0.0009
    119  CD2        8.2250   55.7570    8.3330 C.ar   51  TYR51      -0.0009
    120  CE1        5.5560   55.5110    7.7090 C.ar   51  TYR51       0.0417
    121  CE2        7.6670   56.6100    7.3700 C.ar   51  TYR51       0.0417
    122  CZ         6.3130   56.4730    7.0450 C.ar   51  TYR51       0.1957
    123  OH         5.7100   57.2860    6.1030 O.3    51  TYR51      -0.2866
    124  N          7.4020   52.3800   12.5290 N.am   52  SER52      -0.1952
    125  CA         7.6040   51.1740   13.2740 C.3    52  SER52       0.1924
    126  C          8.2820   50.1700   12.3490 C.2    52  SER52       0.2314
    127  O          8.3510   50.3190   11.1110 O.2    52  SER52      -0.2863
    128  CB         6.2950   50.5910   13.8250 C.3    52  SER52       0.2116
    129  OG         5.6170   49.9380   12.7740 O.3    52  SER52      -0.2180
    130  N          5.6730   48.5290    9.9310 N.3    55  ASN55      -0.1240
    131  CA         5.3460   49.3150    8.7590 C.3    55  ASN55       0.1653
    132  C          6.4510   49.2970    7.7100 C.2    55  ASN55       0.2266
    133  O          6.2310   49.1840    6.4950 O.2    55  ASN55      -0.2867
    134  CB         4.9950   50.7760    9.1750 C.3    55  ASN55       0.1155
    135  CG         4.7510   51.6660    7.9630 C.2    55  ASN55       0.2627
    136  OD1        5.6330   51.8720    7.1180 O.2    55  ASN55      -0.2716
    137  ND2        3.5380   52.2050    7.8640 N.am   55  ASN55      -0.0877
    138  N          0.3070   51.9390   -0.6300 N.3    62  TRP62      -0.1241
    139  CA        -0.9900   52.4320   -0.2770 C.3    62  TRP62       0.1605
    140  C         -2.0030   52.6570   -1.3800 C.2    62  TRP62       0.2264
    141  O         -2.3840   53.7730   -1.6550 O.2    62  TRP62      -0.2867
    142  CB        -0.7590   53.6410    0.6450 C.3    62  TRP62       0.0550
    143  CG        -0.1430   53.2170    1.9550 C.ar   62  TRP62       0.0003
    144  CD1        1.0360   53.6620    2.4600 C.ar   62  TRP62       0.0946
    145  CD2       -0.6660   52.2840    2.9190 C.ar   62  TRP62       0.0152
    146  NE1        1.2720   53.0670    3.6790 N.ar   62  TRP62      -0.2442
    147  CE2        0.2480   52.2380    3.9910 C.ar   62  TRP62       0.0810
    148  CE3       -1.8520   51.5480    3.0330 C.ar   62  TRP62       0.0012
    149  CZ2        0.0280   51.4760    5.1300 C.ar   62  TRP62       0.0191
    150  CZ3       -2.0710   50.7880    4.1570 C.ar   62  TRP62       0.0001
    151  CH2       -1.1380   50.7440    5.1950 C.ar   62  TRP62       0.0015
    152  N         -5.8070   50.6940    1.4140 N.3    67  LEU67      -0.1245
    153  CA        -6.2040   51.6890    2.3770 C.3    67  LEU67       0.1561
    154  C         -7.6210   51.3430    2.8870 C.2    67  LEU67       0.2260
    155  O         -7.9300   51.4720    4.0610 O.2    67  LEU67      -0.2867
    156  CB        -6.2140   53.0970    1.7270 C.3    67  LEU67       0.0270
    157  CG        -4.9010   53.8770    1.6630 C.3    67  LEU67       0.0019
    158  CD1       -4.9950   55.1010    0.7300 C.3    67  LEU67       0.0001
    159  CD2       -4.4290   54.3480    3.0290 C.3    67  LEU67       0.0001
    160  N         -7.1840   48.4950    5.4820 N.3    70  TYR70      -0.1227
    161  CA        -6.3610   48.9980    6.5580 C.3    70  TYR70       0.1736
    162  C         -7.1130   49.9120    7.5030 C.2    70  TYR70       0.2595
    163  O         -7.0040   49.7940    8.7170 O.2    70  TYR70      -0.2718
    164  CB        -5.1410   49.7500    5.9300 C.3    70  TYR70       0.0548
    165  CG        -4.2670   50.4230    6.9550 C.ar   70  TYR70      -0.0200
    166  CD1       -3.4710   49.5970    7.7500 C.ar   70  TYR70      -0.0009
    167  CD2       -4.2380   51.8120    7.1430 C.ar   70  TYR70      -0.0009
    168  CE1       -2.6640   50.1420    8.7450 C.ar   70  TYR70       0.0417
    169  CE2       -3.4510   52.3830    8.1500 C.ar   70  TYR70       0.0417
    170  CZ        -2.6740   51.5260    8.9350 C.ar   70  TYR70       0.1957
    171  OH        -1.8770   52.0410    9.8830 O.3    70  TYR70      -0.2866
    172  N         -7.8370   50.8780    6.9440 N.am   71  ILE71      -0.1980
    173  CA        -8.6020   51.8410    7.7400 C.3    71  ILE71       0.1595
    174  C         -9.6610   51.1200    8.6330 C.2    71  ILE71       0.2287
    175  O        -10.0190   51.5400    9.7440 O.2    71  ILE71      -0.2864
    176  CB        -9.1970   52.9410    6.8590 C.3    71  ILE71       0.0276
    177  CG1       -8.1030   53.8000    6.3410 C.3    71  ILE71       0.0022
    178  CG2      -10.0950   53.8510    7.6570 C.3    71  ILE71       0.0022
    179  CD1       -8.6820   54.8870    5.4780 C.3    71  ILE71       0.0001
    180  N          1.5960   47.3970   13.8870 N.3    81  THR81      -0.1203
    181  CA         1.6990   48.8240   13.6350 C.3    81  THR81       0.1994
    182  C          1.4780   49.6160   14.8810 C.2    81  THR81       0.2618
    183  O          0.8430   49.1680   15.8000 O.2    81  THR81      -0.2717
    184  CB         0.8250   49.3300   12.4590 C.3    81  THR81       0.1784
    185  OG1        0.9700   50.7150   12.2370 O.3    81  THR81      -0.2211
    186  CG2       -0.6370   49.0680   12.7230 C.3    81  THR81       0.0376
    187  N          2.0340   50.7690   14.9470 N.am   82  LYS82      -0.1965
    188  CA         1.8150   51.5320   16.1340 C.3    82  LYS82       0.1728
    189  C          0.6330   52.5040   15.9650 C.2    82  LYS82       0.2616
    190  O          0.3670   53.3320   16.8290 O.2    82  LYS82      -0.2715
    191  CB         3.1220   52.1110   16.6910 C.3    82  LYS82       0.0311
    192  CG         3.6930   53.2760   15.8760 C.3    82  LYS82       0.0038
    193  CD         4.8630   53.9570   16.5880 C.3    82  LYS82       0.0206
    194  CE         5.9060   54.5050   15.6500 C.3    82  LYS82       0.1093
    195  NZ         6.9290   55.2450   16.4130 N.3    82  LYS82      -0.1314
    196  N         -0.1040   52.4460   14.8360 N.am   83  MET83      -0.1963
    197  CA        -1.2910   53.3310   14.6510 C.3    83  MET83       0.1736
    198  C         -2.4320   52.7610   15.5100 C.2    83  MET83       0.2617
    199  O         -2.9750   51.7010   15.1980 O.2    83  MET83      -0.2715
    200  CB        -1.7470   53.3300   13.1910 C.3    83  MET83       0.0427
    201  CG        -3.1920   53.7400   12.9560 C.3    83  MET83       0.0599
    202  SD        -3.3540   54.4110   11.2710 S.3    83  MET83      -0.1393
    203  CE        -5.1120   54.0910   10.9610 C.3    83  MET83       0.0692
    204  N         -2.7530   53.4790   16.5930 N.am   84  GLY84      -0.1940
    205  CA        -3.7370   53.1710   17.6480 C.3    84  GLY84       0.2014
    206  C         -5.2460   53.1830   17.3400 C.2    84  GLY84       0.2638
    207  O         -6.0460   52.7160   18.1600 O.2    84  GLY84      -0.2714
    208  N         -5.6280   53.6910   16.1760 N.am   85  TYR85      -0.1973
    209  CA        -6.9920   53.7630   15.7170 C.3    85  TYR85       0.1639
    210  C         -7.6620   52.3780   15.6800 C.2    85  TYR85       0.2290
    211  O         -7.2020   51.5620   14.9130 O.2    85  TYR85      -0.2864
    212  CB        -6.9990   54.3940   14.2990 C.3    85  TYR85       0.0560
    213  CG        -8.3910   54.7240   13.7920 C.ar   85  TYR85      -0.0198
    214  CD1       -9.2950   55.5270   14.5010 C.ar   85  TYR85      -0.0009
    215  CD2       -8.8070   54.2020   12.5690 C.ar   85  TYR85      -0.0009
    216  CE1      -10.5620   55.8460   14.0080 C.ar   85  TYR85       0.0417
    217  CE2      -10.0990   54.4580   12.0910 C.ar   85  TYR85       0.0417
    218  CZ       -10.9740   55.2840   12.8020 C.ar   85  TYR85       0.1957
    219  OH       -12.2470   55.6010   12.3420 O.3    85  TYR85      -0.2866
    220  N        -13.3400   58.8440    3.1630 N.3    97  ILE97      -0.1245
    221  CA       -12.0160   59.2380    3.5690 C.3    97  ILE97       0.1561
    222  C        -11.0330   58.9700    2.4620 C.2    97  ILE97       0.2260
    223  O        -10.2050   59.7930    2.1780 O.2    97  ILE97      -0.2867
    224  CB       -11.5650   58.6330    4.8780 C.3    97  ILE97       0.0252
    225  CG1      -12.4230   59.1550    6.0190 C.3    97  ILE97       0.0019
    226  CG2      -10.0680   58.8780    5.1110 C.3    97  ILE97       0.0019
    227  CD1      -12.4840   58.1860    7.2040 C.3    97  ILE97       0.0001
    228  N         -8.3660   61.5010    0.4400 N.3   101  LEU101     -0.1245
    229  CA        -6.9430   61.2280    0.3930 C.3   101  LEU101      0.1561
    230  C         -6.4460   61.4070   -1.0150 C.2   101  LEU101      0.2260
    231  O         -5.3260   61.8350   -1.2570 O.2   101  LEU101     -0.2867
    232  CB        -6.6670   59.7690    0.8910 C.3   101  LEU101      0.0270
    233  CG        -6.8500   59.6580    2.4170 C.3   101  LEU101      0.0019
    234  CD1       -6.4590   58.2850    2.8780 C.3   101  LEU101      0.0001
    235  CD2       -5.9410   60.6340    3.1350 C.3   101  LEU101      0.0001
@<TRIPOS>BOND
     1    71    72    1
     2    72    73    1
     3    72    75    1
     4   141   140    2
     5   140   139    1
     6   231   230    2
     7    73    74    2
     8   230   229    1
     9    75    76    1
    10   138   139    1
    11    99    97    1
    12    66    67    2
    13    66    65    1
    14   139   142    1
    15    76    77    1
    16    64    65    1
    17   229   228    1
    18   229   232    1
    19    65    68    1
    20   142   143    1
    21   158   157    1
    22    77    78    1
    23   232   233    1
    24    97    96    1
    25   152   153    1
    26    98    96    1
    27   157   156    1
    28   157   159    1
    29   156   153    1
    30    96    93    1
    31    82    83    1
    32   143   144   ar
    33   143   145   ar
    34    69    68    1
    35    68    70    1
    36   223   222    2
    37    78    79    2
    38   153   154    1
    39   233   234    1
    40   233   235    1
    41   144   146   ar
    42   222   221    1
    43    59    58    2
    44    80    79    1
    45   154   155    2
    46   145   148   ar
    47   145   147   ar
    48    85    84    2
    49    79    81    1
    50   148   150   ar
    51    95    94    2
    52   220   221    1
    53    83    84    1
    54    83    86    1
    55    93    94    1
    56    93    92    1
    57    58    57    1
    58    87    86    1
    59   221   224    1
    60    84    88   am
    61   146   147   ar
    62    92    90   am
    63   147   149   ar
    64   150   151   ar
    65    57    60    1
    66    57    56    1
    67    90    91    2
    68    90    89    1
    69    88    89    1
    70   224   226    1
    71   224   225    1
    72   149   151   ar
    73    60    61    1
    74   179   177    1
    75   160   161    1
    76   164   161    1
    77   164   165    1
    78   225   227    1
    79   123   122    1
    80    63    61    1
    81   177   176    1
    82   133   132    2
    83    61    62    1
    84   161   162    1
    85   176   178    1
    86   176   173    1
    87   172   162   am
    88   172   173    1
    89   165   167   ar
    90   165   166   ar
    91   122   121   ar
    92   122   120   ar
    93   136   135    2
    94   167   169   ar
    95   121   119   ar
    96   162   163    2
    97   120   118   ar
    98   132   131    1
    99   173   174    1
   100   166   168   ar
   101   137   135   am
   102   135   134    1
   103   169   170   ar
   104    53    54    1
   105    53    50    1
   106   119   117   ar
   107    51    52    2
   108    51    50    1
   109   174   175    2
   110   118   117   ar
   111    54    55    1
   112   168   170   ar
   113   131   134    1
   114   131   130    1
   115   170   171    1
   116   117   116    1
   117    14    13    1
   118    50    49    1
   119   100   101    1
   120   104   101    1
   121   104   105    1
   122    13    10    1
   123   116   113    1
   124    34    33   ar
   125    34    36   ar
   126    55    49    1
   127    32    33    1
   128    32    29    1
   129    49    47   am
   130   103   102    2
   131   101   102    1
   132    33    35   ar
   133    36    37   ar
   134   105   107   ar
   135   105   106   ar
   136    30    29    1
   137    30    31    2
   138   107   109   ar
   139    35    37   ar
   140   203   202    1
   141   127   126    2
   142    29    28    1
   143   202   201    1
   144    10     9    1
   145    10    11    1
   146    47    48    2
   147    47    46    1
   148     8     6    1
   149   113   112    1
   150   113   114    1
   151   106   108   ar
   152     9     3   am
   153   109   110   ar
   154    11    12    2
   155   217   215   ar
   156   217   218   ar
   157   185   184    1
   158     5     6    1
   159     5     7    1
   160     5     2    1
   161   219   218    1
   162   126   125    1
   163   114   124   am
   164   114   115    2
   165   184   186    1
   166   184   181    1
   167    28    24   am
   168   124   125    1
   169   108   110   ar
   170   215   213   ar
   171    46    45    1
   172   110   111    1
   173     1     2    1
   174   129   128    1
   175   218   216   ar
   176     3     2    1
   177     3     4    2
   178   201   200    1
   179   200   197    1
   180   125   128    1
   181    25    24    2
   182    24    23    1
   183   181   180    1
   184   181   182    1
   185   213   212    1
   186   213   214   ar
   187    45    40   am
   188   216   214   ar
   189   212   209    1
   190    15    16    1
   191   197   196    1
   192   197   198    1
   193    23    22    1
   194    23    26    1
   195   196   189   am
   196    22    17   am
   197   182   187   am
   198   182   183    2
   199    26    27    1
   200    40    41    2
   201    40    39    1
   202   211   210    2
   203   187   188    1
   204   199   198    2
   205    38    39    1
   206   198   204   am
   207   194   195    1
   208   194   193    1
   209   210   209    1
   210   209   208    1
   211    16    17    1
   212    16    19    1
   213   192   193    1
   214   192   191    1
   215    17    18    2
   216   189   188    1
   217   189   190    2
   218    39    42    1
   219   188   191    1
   220   208   206   am
   221    19    20    1
   222    19    21    1
   223   204   205    1
   224    42    43    1
   225    42    44    1
   226   206   205    1
   227   206   207    2
