@<TRIPOS>MOLECULE
tmp/1hrpB02.pdb
 82 77 0 0 0
SMALL
GASTEIGER

@<TRIPOS>ATOM
      1  N         17.1810   21.5520  -12.8420 N.3    12  ASN12      -0.1240
      2  CA        16.2300   21.1280  -13.8350 C.3    12  ASN12       0.1653
      3  C         15.4180   19.9360  -13.3960 C.2    12  ASN12       0.2266
      4  O         15.8320   19.1690  -12.5340 O.2    12  ASN12      -0.2867
      5  CB        16.8200   21.0100  -15.2530 C.3    12  ASN12       0.1155
      6  CG        18.1010   20.2630  -15.2970 C.2    12  ASN12       0.2627
      7  OD1       18.0880   19.0470  -15.2780 O.2    12  ASN12      -0.2716
      8  ND2       19.2150   20.9780  -15.4360 N.am   12  ASN12      -0.0877
      9  N         11.5760   19.3660  -20.2300 N.3    29  ASN29      -0.1225
     10  CA        12.6950   19.6110  -19.3490 C.3    29  ASN29       0.1785
     11  C         12.8040   21.0970  -19.1550 C.2    29  ASN29       0.2598
     12  O         12.8300   21.8560  -20.1340 O.2    29  ASN29      -0.2718
     13  CB        14.0220   19.1500  -19.9490 C.3    29  ASN29       0.1169
     14  CG        15.2440   19.6890  -19.1550 C.2    29  ASN29       0.2627
     15  OD1       15.2890   19.5660  -17.9170 O.2    29  ASN29      -0.2716
     16  ND2       16.2190   20.2980  -19.8440 N.am   29  ASN29      -0.0877
     17  N         12.8790   21.5150  -17.9010 N.am   30  THR30      -0.1939
     18  CA        13.0590   22.9160  -17.5920 C.3    30  THR30       0.2028
     19  C         13.8220   23.0090  -16.3270 C.2    30  THR30       0.2642
     20  O         14.2070   22.0150  -15.7340 O.2    30  THR30      -0.2714
     21  CB        11.7710   23.6450  -17.3380 C.3    30  THR30       0.1808
     22  OG1       10.8440   22.7660  -16.7070 O.3    30  THR30      -0.2208
     23  CG2       11.2220   24.1590  -18.6050 C.3    30  THR30       0.0379
     24  N         14.0110   24.2360  -15.9050 N.am   31  THR31      -0.1950
     25  CA        14.7040   24.4980  -14.6800 C.3    31  THR31       0.1897
     26  C         13.7270   25.2310  -13.7730 C.2    31  THR31       0.2313
     27  O         12.9840   26.1100  -14.2240 O.2    31  THR31      -0.2863
     28  CB        15.9180   25.3810  -14.9470 C.3    31  THR31       0.1794
     29  OG1       15.5280   26.4780  -15.7810 O.3    31  THR31      -0.2208
     30  CG2       16.9920   24.5740  -15.6510 C.3    31  THR31       0.0378
     31  N         12.5840   32.6970  -18.4480 N.3    62  ARG62      -0.1245
     32  CA        12.5660   32.6430  -19.8950 C.3    62  ARG62       0.1563
     33  C         11.4100   31.7410  -20.2180 C.2    62  ARG62       0.2260
     34  O         10.9820   30.9640  -19.3650 O.2    62  ARG62      -0.2867
     35  CB        13.8470   32.0410  -20.4620 C.3    62  ARG62       0.0307
     36  CG        13.8460   32.0240  -21.9830 C.3    62  ARG62       0.0489
     37  CD        15.2290   31.8430  -22.5590 C.3    62  ARG62       0.2205
     38  NE        15.6960   30.4750  -22.4040 N.pl3  62  ARG62      -0.0865
     39  CZ        15.4330   29.5020  -23.2720 C.cat  62  ARG62       0.5346
     40  NH1       14.7080   29.7570  -24.3620 N.pl3  62  ARG62       0.1354
     41  NH2       15.9100   28.2790  -23.0620 N.pl3  62  ARG62       0.1354
     42  N          9.5790   29.0110  -23.1080 N.3    64  GLU64      -0.1245
     43  CA         9.7870   28.1330  -24.2480 C.3    64  GLU64       0.1567
     44  C          8.4660   27.4800  -24.5790 C.2    64  GLU64       0.2260
     45  O          7.7560   26.9940  -23.6950 O.2    64  GLU64      -0.2867
     46  CB        10.8270   27.0600  -23.9450 C.3    64  GLU64       0.0388
     47  CG        12.2300   27.5910  -23.9450 C.3    64  GLU64       0.1160
     48  CD        13.2620   26.5090  -23.7610 C.2    64  GLU64       0.3649
     49  OE1       13.0330   25.5900  -22.9430 O.co2  64  GLU64      -0.2457
     50  OE2       14.3160   26.5960  -24.4320 O.co2  64  GLU64      -0.2457
     51  N          6.1300   27.5980  -21.6610 N.3    81  TYR81      -0.1241
     52  CA         6.4270   27.3200  -20.2790 C.3    81  TYR81       0.1605
     53  C          7.5730   28.1620  -19.7720 C.2    81  TYR81       0.2264
     54  O          8.4730   28.5210  -20.5320 O.2    81  TYR81      -0.2867
     55  CB         6.7130   25.8410  -20.0890 C.3    81  TYR81       0.0534
     56  CG         7.6650   25.2540  -21.0730 C.ar   81  TYR81      -0.0201
     57  CD1        9.0170   25.2860  -20.8390 C.ar   81  TYR81      -0.0009
     58  CD2        7.2100   24.5790  -22.1970 C.ar   81  TYR81      -0.0009
     59  CE1        9.9050   24.6510  -21.6860 C.ar   81  TYR81       0.0417
     60  CE2        8.1010   23.9400  -23.0540 C.ar   81  TYR81       0.0417
     61  CZ         9.4500   23.9830  -22.7780 C.ar   81  TYR81       0.1957
     62  OH        10.3700   23.3580  -23.5710 O.3    81  TYR81      -0.2866
     63  N         10.9650   29.0400  -17.7490 N.3    83  VAL83      -0.1231
     64  CA        12.2030   28.3350  -17.4590 C.3    83  VAL83       0.1692
     65  C         13.0840   29.2940  -16.6430 C.2    83  VAL83       0.2592
     66  O         13.2650   30.4750  -16.9960 O.2    83  VAL83      -0.2718
     67  CB        12.8900   27.7980  -18.7340 C.3    83  VAL83       0.0266
     68  CG1       12.2210   28.3560  -19.9590 C.3    83  VAL83       0.0020
     69  CG2       14.3640   28.1110  -18.7390 C.3    83  VAL83       0.0020
     70  N         13.5440   28.7970  -15.4980 N.am   84  ALA84      -0.1966
     71  CA        14.3370   29.5690  -14.5580 C.3    84  ALA84       0.1728
     72  C         15.7660   29.7910  -14.9720 C.2    84  ALA84       0.2616
     73  O         16.5330   28.8350  -15.1340 O.2    84  ALA84      -0.2715
     74  CB        14.2930   28.9100  -13.1720 C.3    84  ALA84       0.0334
     75  N         16.1120   31.0610  -15.1620 N.am   85  LEU85      -0.1977
     76  CA        17.4690   31.4490  -15.5080 C.3    85  LEU85       0.1596
     77  C         18.2000   31.7490  -14.2140 C.2    85  LEU85       0.2287
     78  O         19.2380   31.1630  -13.9130 O.2    85  LEU85      -0.2864
     79  CB        17.4520   32.6950  -16.3750 C.3    85  LEU85       0.0297
     80  CG        16.7790   32.4690  -17.7150 C.3    85  LEU85       0.0022
     81  CD1       16.5110   33.8170  -18.3670 C.3    85  LEU85       0.0001
     82  CD2       17.6580   31.5600  -18.5620 C.3    85  LEU85       0.0001
@<TRIPOS>BOND
     1    44    43    1
     2    44    45    2
     3    50    48   ar
     4    40    39    1
     5    43    46    1
     6    43    42    1
     7    47    46    1
     8    47    48    1
     9    48    49   ar
    10    62    61    1
    11    39    41    1
    12    39    38    2
    13    60    61   ar
    14    60    58   ar
    15    61    59   ar
    16    37    38    1
    17    37    36    1
    18    58    56   ar
    19    36    35    1
    20    59    57   ar
    21    51    52    1
    22    56    57   ar
    23    56    55    1
    24    54    53    2
    25    35    32    1
    26    52    55    1
    27    52    53    1
    28     9    10    1
    29    33    32    1
    30    33    34    2
    31    12    11    2
    32    68    67    1
    33    13    10    1
    34    13    14    1
    35    32    31    1
    36    16    14   am
    37    10    11    1
    38    14    15    2
    39    11    17   am
    40    69    67    1
    41    67    64    1
    42    23    21    1
    43    82    80    1
    44    81    80    1
    45    17    18    1
    46    63    64    1
    47    80    79    1
    48    18    21    1
    49    18    19    1
    50    64    65    1
    51    21    22    1
    52    66    65    2
    53    65    70   am
    54    79    76    1
    55    19    24   am
    56    19    20    2
    57    24    25    1
    58    29    28    1
    59    30    28    1
    60    76    75    1
    61    76    77    1
    62    70    71    1
    63     8     6   am
    64     6     7    2
    65     6     5    1
    66     5     2    1
    67    75    72   am
    68    73    72    2
    69    72    71    1
    70    28    25    1
    71    25    26    1
    72    71    74    1
    73    27    26    2
    74    77    78    2
    75     2     3    1
    76     2     1    1
    77     3     4    2
