@<TRIPOS>MOLECULE
tmp/1hrpA00.pdb
 84 79 0 0 0
SMALL
GASTEIGER

@<TRIPOS>ATOM
      1  N         19.9300   26.4460   17.0520 N.3     9  LEU9       -0.1245
      2  CA        19.8410   27.4910   18.0480 C.3     9  LEU9        0.1561
      3  C         21.1180   28.2440   18.1110 C.2     9  LEU9        0.2260
      4  O         22.1720   27.6880   18.3700 O.2     9  LEU9       -0.2867
      5  CB        19.5430   26.9570   19.4400 C.3     9  LEU9        0.0270
      6  CG        18.2460   26.1970   19.5640 C.3     9  LEU9        0.0019
      7  CD1       18.5380   24.7380   19.2550 C.3     9  LEU9        0.0001
      8  CD2       17.7170   26.3430   20.9620 C.3     9  LEU9        0.0001
      9  N         25.3130   34.1780   31.6680 N.3    19  GLY19      -0.1210
     10  CA        24.6820   33.2690   32.5970 C.3    19  GLY19       0.1956
     11  C         23.1770   33.4490   32.5160 C.2    19  GLY19       0.2612
     12  O         22.4580   33.2380   33.4990 O.2    19  GLY19      -0.2717
     13  N         22.7140   33.8780   31.3500 N.am   20  ALA20      -0.1966
     14  CA        21.3000   34.0900   31.0720 C.3    20  ALA20       0.1713
     15  C         21.2140   34.3650   29.5810 C.2    20  ALA20       0.2458
     16  O         20.8650   35.4730   29.1680 O.2    20  ALA20      -0.2730
     17  CB        20.7740   35.2860   31.8530 C.3    20  ALA20       0.0333
     18  N         21.6040   33.3770   28.7530 N.am   21  PRO21      -0.2716
     19  CA        21.5540   33.5830   27.3100 C.3    21  PRO21       0.1536
     20  C         20.1290   33.4150   26.7570 C.2    21  PRO21       0.2598
     21  O         19.2630   32.7950   27.4060 O.2    21  PRO21      -0.2715
     22  CB        22.5210   32.5120   26.7950 C.3    21  PRO21       0.0310
     23  CG        22.2550   31.3780   27.7150 C.3    21  PRO21       0.0237
     24  CD        22.1460   32.0470   29.0790 C.3    21  PRO21       0.0939
     25  N         19.8640   34.0680   25.6300 N.am   22  ILE22      -0.1964
     26  CA        18.5770   33.9700   24.9900 C.3    22  ILE22       0.1727
     27  C         18.8560   33.3490   23.6520 C.2    22  ILE22       0.2616
     28  O         19.6490   33.8600   22.8740 O.2    22  ILE22      -0.2715
     29  CB        17.9200   35.3250   24.8120 C.3    22  ILE22       0.0290
     30  CG1       17.4860   35.8510   26.1740 C.3    22  ILE22       0.0022
     31  CG2       16.7170   35.2050   23.8660 C.3    22  ILE22       0.0023
     32  CD1       16.3930   35.0640   26.7830 C.3    22  ILE22       0.0001
     33  N         18.2010   32.2390   23.3880 N.am   23  LEU23      -0.1977
     34  CA        18.4260   31.5110   22.1640 C.3    23  LEU23       0.1596
     35  C         17.4180   31.7840   21.0580 C.2    23  LEU23       0.2287
     36  O         16.2000   31.8800   21.2740 O.2    23  LEU23      -0.2864
     37  CB        18.4880   30.0250   22.4920 C.3    23  LEU23       0.0297
     38  CG        19.3570   29.7010   23.7030 C.3    23  LEU23       0.0022
     39  CD1       19.4230   28.1940   23.8630 C.3    23  LEU23       0.0001
     40  CD2       20.7580   30.2930   23.5370 C.3    23  LEU23       0.0001
     41  N         10.1040   29.4470   25.7990 N.3    63  ASN63      -0.1240
     42  CA         9.4650   29.9950   27.0000 C.3    63  ASN63       0.1653
     43  C          9.5390   31.5100   26.9480 C.2    63  ASN63       0.2266
     44  O         10.6040   32.0610   26.7180 O.2    63  ASN63      -0.2867
     45  CB        10.1900   29.5680   28.2830 C.3    63  ASN63       0.1155
     46  CG        10.8790   28.2140   28.1720 C.2    63  ASN63       0.2627
     47  OD1       10.2520   27.1930   27.8600 O.2    63  ASN63      -0.2716
     48  ND2       12.1790   28.1950   28.4850 N.am   63  ASN63      -0.0877
     49  N         10.1510   34.7350   28.5270 N.3    65  VAL65      -0.1231
     50  CA        10.7150   35.2990   29.7390 C.3    65  VAL65       0.1692
     51  C         10.7810   36.8090   29.5720 C.2    65  VAL65       0.2593
     52  O         10.2330   37.3740   28.6190 O.2    65  VAL65      -0.2718
     53  CB        12.1410   34.7780   30.0460 C.3    65  VAL65       0.0266
     54  CG1       12.1210   33.2970   30.2880 C.3    65  VAL65       0.0020
     55  CG2       13.1010   35.1400   28.9350 C.3    65  VAL65       0.0020
     56  N         11.4130   37.4580   30.5420 N.am   66  THR66      -0.1939
     57  CA        11.5910   38.9040   30.5440 C.3    66  THR66       0.2028
     58  C         13.0170   39.1910   30.9570 C.2    66  THR66       0.2642
     59  O         13.5480   38.5760   31.8870 O.2    66  THR66      -0.2714
     60  CB        10.6530   39.5950   31.5150 C.3    66  THR66       0.1808
     61  OG1        9.3010   39.4000   31.0770 O.3    66  THR66      -0.2208
     62  CG2       10.9640   41.0940   31.5850 C.3    66  THR66       0.0379
     63  N         13.6270   40.1570   30.2910 N.am   67  VAL67      -0.1977
     64  CA        15.0060   40.4530   30.5660 C.3    67  VAL67       0.1596
     65  C         15.3780   41.9060   30.4820 C.2    67  VAL67       0.2287
     66  O         14.6050   42.7400   30.0360 O.2    67  VAL67      -0.2864
     67  CB        15.8810   39.6990   29.5600 C.3    67  VAL67       0.0276
     68  CG1       15.8020   38.1810   29.8070 C.3    67  VAL67       0.0022
     69  CG2       15.4140   40.0360   28.1400 C.3    67  VAL67       0.0022
     70  N         12.3700   33.0110   24.5120 N.3    75  ASN75      -0.1240
     71  CA        13.6270   32.2880   24.4740 C.3    75  ASN75       0.1653
     72  C         13.3870   30.8690   23.9400 C.2    75  ASN75       0.2266
     73  O         12.7960   30.0330   24.6290 O.2    75  ASN75      -0.2867
     74  CB        14.1360   32.2690   25.9080 C.3    75  ASN75       0.1155
     75  CG        15.3840   31.4740   26.0930 C.2    75  ASN75       0.2627
     76  OD1       16.1580   31.2680   25.1710 O.2    75  ASN75      -0.2716
     77  ND2       15.6000   31.0820   27.3420 N.am   75  ASN75      -0.0877
     78  N         13.9380   26.9190   22.5900 N.3    77  THR77      -0.1218
     79  CA        14.6510   25.7720   23.1420 C.3    77  THR77       0.1862
     80  C         14.5950   24.5270   22.2900 C.2    77  THR77       0.2287
     81  O         14.6550   23.4280   22.8380 O.2    77  THR77      -0.2866
     82  CB        14.1050   25.3510   24.5120 C.3    77  THR77       0.1770
     83  OG1       12.6920   25.1280   24.4200 O.3    77  THR77      -0.2211
     84  CG2       14.4080   26.4040   25.5530 C.3    77  THR77       0.0375
@<TRIPOS>BOND
     1     1     2    1
     2     2     3    1
     3     2     5    1
     4     3     4    2
     5     7     6    1
     6     5     6    1
     7     6     8    1
     8    35    36    2
     9    35    34    1
    10    34    37    1
    11    34    33    1
    12    80    81    2
    13    80    79    1
    14    37    38    1
    15    78    79    1
    16    28    27    2
    17    79    82    1
    18    33    27   am
    19    40    38    1
    20    27    26    1
    21    38    39    1
    22    31    29    1
    23    72    71    1
    24    72    73    2
    25    83    82    1
    26    71    70    1
    27    71    74    1
    28    82    84    1
    29    29    26    1
    30    29    30    1
    31    26    25    1
    32    76    75    2
    33    25    20   am
    34    41    42    1
    35    74    75    1
    36    75    77   am
    37    30    32    1
    38    44    43    2
    39    20    19    1
    40    20    21    2
    41    22    19    1
    42    22    23    1
    43    43    42    1
    44    42    45    1
    45    19    18    1
    46    23    24    1
    47    47    46    2
    48    69    67    1
    49    46    45    1
    50    46    48   am
    51    49    50    1
    52    52    51    2
    53    18    24    1
    54    18    15   am
    55    55    53    1
    56    16    15    2
    57    67    68    1
    58    67    64    1
    59    51    50    1
    60    51    56   am
    61    15    14    1
    62    50    53    1
    63    66    65    2
    64    53    54    1
    65    63    64    1
    66    63    58   am
    67    65    64    1
    68    56    57    1
    69    57    58    1
    70    57    60    1
    71    58    59    2
    72    14    13    1
    73    14    17    1
    74    61    60    1
    75    13    11   am
    76    60    62    1
    77     9    10    1
    78    11    10    1
    79    11    12    2
