@<TRIPOS>MOLECULE
tmp/1hrsA00.pdb
 116 109 0 0 0
SMALL
GASTEIGER

@<TRIPOS>ATOM
      1  N         35.6380    7.0390   37.5020 N.3    24  LEU24      -0.1245
      2  CA        35.8600    5.5980   37.5630 C.3    24  LEU24       0.1561
      3  C         35.5660    4.9850   38.9480 C.2    24  LEU24       0.2260
      4  O         34.8990    3.9490   39.0310 O.2    24  LEU24      -0.2867
      5  CB        37.2970    5.3340   37.1790 C.3    24  LEU24       0.0270
      6  CG        37.7410    4.6680   35.8790 C.3    24  LEU24       0.0019
      7  CD1       36.7180    4.8180   34.7500 C.3    24  LEU24       0.0001
      8  CD2       39.1310    5.2540   35.5640 C.3    24  LEU24       0.0001
      9  N         31.8130    5.1360   39.6210 N.3    27  SER27      -0.1202
     10  CA        31.2960    4.0660   38.8040 C.3    27  SER27       0.2020
     11  C         31.4830    2.7630   39.5950 C.2    27  SER27       0.2618
     12  O         30.5330    1.9950   39.6840 O.2    27  SER27      -0.2717
     13  CB        32.0630    4.0970   37.5180 C.3    27  SER27       0.2103
     14  OG        31.5900    2.9980   36.7960 O.3    27  SER27      -0.2182
     15  N         32.6020    2.5480   40.3170 N.am   28  TYR28      -0.1975
     16  CA        32.8380    1.3690   41.1630 C.3    28  TYR28       0.1639
     17  C         31.8820    1.2260   42.3220 C.2    28  TYR28       0.2290
     18  O         31.4310    0.1190   42.6020 O.2    28  TYR28      -0.2864
     19  CB        34.2790    1.3430   41.7680 C.3    28  TYR28       0.0560
     20  CG        34.8750   -0.0550   42.0130 C.ar   28  TYR28      -0.0198
     21  CD1       34.0860   -1.1800   42.1380 C.ar   28  TYR28      -0.0009
     22  CD2       36.2450   -0.2400   42.0370 C.ar   28  TYR28      -0.0009
     23  CE1       34.6410   -2.4440   42.2640 C.ar   28  TYR28       0.0417
     24  CE2       36.8010   -1.5110   42.1620 C.ar   28  TYR28       0.0417
     25  CZ        35.9920   -2.6080   42.2660 C.ar   28  TYR28       0.1957
     26  OH        36.4970   -3.8800   42.2910 O.3    28  TYR28      -0.2866
     27  N         28.2610   -0.1290   40.9010 N.3    31  LEU31      -0.1245
     28  CA        28.1280   -1.5590   40.6370 C.3    31  LEU31       0.1561
     29  C         28.2270   -2.3500   41.9290 C.2    31  LEU31       0.2260
     30  O         27.6830   -3.4490   41.9680 O.2    31  LEU31      -0.2867
     31  CB        29.2140   -2.0350   39.6820 C.3    31  LEU31       0.0270
     32  CG        29.6770   -3.4790   39.4970 C.3    31  LEU31       0.0019
     33  CD1       30.2840   -3.6970   38.1160 C.3    31  LEU31       0.0001
     34  CD2       30.7800   -3.7740   40.4680 C.3    31  LEU31       0.0001
     35  N         22.8170    0.1990   38.5580 N.3    52  ARG52      -0.1231
     36  CA        23.5660   -0.2800   37.3960 C.3    52  ARG52       0.1694
     37  C         23.5580    0.7320   36.2810 C.2    52  ARG52       0.2591
     38  O         24.6360    0.9470   35.7200 O.2    52  ARG52      -0.2718
     39  CB        23.0400   -1.6070   36.8240 C.3    52  ARG52       0.0321
     40  CG        23.7480   -2.7860   37.5350 C.3    52  ARG52       0.0489
     41  CD        23.8620   -4.0950   36.7420 C.3    52  ARG52       0.2205
     42  NE        24.5050   -3.9090   35.4300 N.pl3  52  ARG52      -0.0865
     43  CZ        24.3580   -4.7960   34.4140 C.cat  52  ARG52       0.5346
     44  NH1       23.6290   -5.9070   34.5550 N.pl3  52  ARG52       0.1354
     45  NH2       24.8640   -4.5350   33.1960 N.pl3  52  ARG52       0.1354
     46  N         22.4600    1.4670   36.0290 N.am   53  GLU53      -0.1979
     47  CA        22.4910    2.5380   35.0300 C.3    53  GLU53       0.1602
     48  C         23.3600    3.7080   35.5180 C.2    53  GLU53       0.2287
     49  O         24.0830    4.2950   34.7060 O.2    53  GLU53      -0.2864
     50  CB        21.0810    3.0630   34.7080 C.3    53  GLU53       0.0415
     51  CG        20.2950    2.1530   33.7320 C.3    53  GLU53       0.1163
     52  CD        20.7080    2.1150   32.2370 C.2    53  GLU53       0.3649
     53  OE1       20.5360    3.1490   31.5570 O.co2  53  GLU53      -0.2457
     54  OE2       21.1660    1.0520   31.7550 O.co2  53  GLU53      -0.2457
     55  N         26.0780    3.5910   37.3810 N.3    55  ALA55      -0.1231
     56  CA        27.4220    3.1390   37.1780 C.3    55  ALA55       0.1694
     57  C         27.8840    3.3990   35.7360 C.2    55  ALA55       0.2591
     58  O         28.9630    3.9370   35.5030 O.2    55  ALA55      -0.2718
     59  CB        27.3560    1.6890   37.5660 C.3    55  ALA55       0.0304
     60  N         27.0180    3.1480   34.7540 N.am   56  GLU56      -0.1979
     61  CA        27.2590    3.3620   33.3310 C.3    56  GLU56       0.1602
     62  C         27.4740    4.8210   32.9730 C.2    56  GLU56       0.2287
     63  O         28.4350    5.2050   32.2970 O.2    56  GLU56      -0.2864
     64  CB        26.0650    2.8050   32.6190 C.3    56  GLU56       0.0415
     65  CG        25.9990    2.9420   31.1210 C.3    56  GLU56       0.1163
     66  CD        24.6040    2.6360   30.5780 C.2    56  GLU56       0.3649
     67  OE1       24.0200    1.5850   30.8960 O.co2  56  GLU56      -0.2457
     68  OE2       24.1010    3.4840   29.8300 O.co2  56  GLU56      -0.2457
     69  N         30.8000    5.7980   34.1440 N.3    59  ARG59      -0.1231
     70  CA        31.8330    5.3540   33.2320 C.3    59  ARG59       0.1694
     71  C         31.8150    6.2470   31.9990 C.2    59  ARG59       0.2591
     72  O         32.8630    6.5520   31.4500 O.2    59  ARG59      -0.2718
     73  CB        31.5850    3.8940   32.8690 C.3    59  ARG59       0.0321
     74  CG        32.2270    3.4600   31.5680 C.3    59  ARG59       0.0489
     75  CD        31.2480    3.6100   30.3860 C.3    59  ARG59       0.2205
     76  NE        30.1390    2.6780   30.4900 N.pl3  59  ARG59      -0.0865
     77  CZ        29.3110    2.4320   29.4760 C.cat  59  ARG59       0.5346
     78  NH1       29.4940    3.0170   28.3080 N.pl3  59  ARG59       0.1354
     79  NH2       28.3300    1.5490   29.6460 N.pl3  59  ARG59       0.1354
     80  N         30.6410    6.6940   31.5640 N.am   60  GLU60      -0.1979
     81  CA        30.5070    7.6160   30.4410 C.3    60  GLU60       0.1602
     82  C         31.2180    8.9410   30.7110 C.2    60  GLU60       0.2287
     83  O         31.9980    9.4170   29.8960 O.2    60  GLU60      -0.2864
     84  CB        29.0590    7.8980   30.2260 C.3    60  GLU60       0.0415
     85  CG        28.5660    7.6430   28.8430 C.3    60  GLU60       0.1163
     86  CD        28.4080    6.1750   28.5140 C.2    60  GLU60       0.3649
     87  OE1       27.4640    5.5630   29.0420 O.co2  60  GLU60      -0.2457
     88  OE2       29.2260    5.6910   27.7140 O.co2  60  GLU60      -0.2457
     89  N         35.0180    8.2140   30.3190 N.3    63  GLU63      -0.1245
     90  CA        35.3870    8.1630   28.9180 C.3    63  GLU63       0.1567
     91  C         35.3590    9.5470   28.2770 C.2    63  GLU63       0.2260
     92  O         36.3250    9.9460   27.6030 O.2    63  GLU63      -0.2867
     93  CB        34.4430    7.2730   28.1740 C.3    63  GLU63       0.0388
     94  CG        34.5960    5.8750   28.7230 C.3    63  GLU63       0.1160
     95  CD        33.8440    4.8050   27.9670 C.2    63  GLU63       0.3649
     96  OE1       32.6250    4.9060   27.7800 O.co2  63  GLU63      -0.2457
     97  OE2       34.4990    3.8410   27.5780 O.co2  63  GLU63      -0.2457
     98  N         46.5630    7.1950   34.3030 N.3    78  PHE78      -0.1241
     99  CA        45.7470    6.3530   35.1680 C.3    78  PHE78       0.1605
    100  C         46.3960    5.9590   36.5060 C.2    78  PHE78       0.2264
    101  O         47.6230    5.8680   36.6550 O.2    78  PHE78      -0.2867
    102  CB        45.3730    5.0960   34.4090 C.3    78  PHE78       0.0534
    103  CG        44.5660    5.4080   33.1660 C.ar   78  PHE78      -0.0203
    104  CD1       43.2540    5.8050   33.2730 C.ar   78  PHE78      -0.0042
    105  CD2       45.1660    5.3160   31.9450 C.ar   78  PHE78      -0.0042
    106  CE1       42.5630    6.1140   32.1310 C.ar   78  PHE78      -0.0003
    107  CE2       44.4720    5.6230   30.8180 C.ar   78  PHE78      -0.0003
    108  CZ        43.1720    6.0240   30.9140 C.ar   78  PHE78      -0.0000
    109  N         42.0250    2.1510   41.1680 N.3    81  LEU81      -0.1245
    110  CA        40.6890    2.4300   41.6320 C.3    81  LEU81       0.1561
    111  C         40.3460    1.7890   42.9370 C.2    81  LEU81       0.2260
    112  O         40.1230    0.5910   43.0360 O.2    81  LEU81      -0.2867
    113  CB        39.6450    1.9710   40.6280 C.3    81  LEU81       0.0270
    114  CG        39.6430    2.3900   39.1800 C.3    81  LEU81       0.0019
    115  CD1       38.3320    1.8690   38.7120 C.3    81  LEU81       0.0001
    116  CD2       39.7790    3.8740   38.9090 C.3    81  LEU81       0.0001
@<TRIPOS>BOND
     1    97    95   ar
     2    92    91    2
     3    88    86   ar
     4    96    95   ar
     5    95    94    1
     6    93    94    1
     7    93    90    1
     8    91    90    1
     9    78    77    1
    10    86    85    1
    11    86    87   ar
    12    85    84    1
    13    90    89    1
    14    77    79    1
    15    77    76    2
    16    68    66   ar
    17    83    82    2
    18    84    81    1
    19    75    76    1
    20    75    74    1
    21    81    82    1
    22    81    80    1
    23    66    67   ar
    24    66    65    1
    25   107   108   ar
    26   107   105   ar
    27   108   106   ar
    28    65    64    1
    29    72    71    2
    30    53    52   ar
    31    80    71   am
    32    74    73    1
    33    54    52   ar
    34   105   103   ar
    35    71    70    1
    36   106   104   ar
    37    52    51    1
    38    63    62    2
    39    64    61    1
    40    73    70    1
    41    62    61    1
    42   103   104   ar
    43   103   102    1
    44    45    43    1
    45    70    69    1
    46    61    60    1
    47    51    50    1
    48    98    99    1
    49   102    99    1
    50    43    44    1
    51    43    42    2
    52    49    48    2
    53    50    47    1
    54     7     6    1
    55    60    57   am
    56    47    48    1
    57    47    46    1
    58    99   100    1
    59    42    41    1
    60    58    57    2
    61     8     6    1
    62    38    37    2
    63    57    56    1
    64     6     5    1
    65    46    37   am
    66    37    36    1
    67   100   101    2
    68    41    40    1
    69    14    13    1
    70    39    36    1
    71    39    40    1
    72    56    55    1
    73    56    59    1
    74     5     2    1
    75    36    35    1
    76     1     2    1
    77    13    10    1
    78     2     3    1
    79    33    32    1
    80   115   114    1
    81    10    11    1
    82    10     9    1
    83   116   114    1
    84     3     4    2
    85   114   113    1
    86    32    31    1
    87    32    34    1
    88    11    12    2
    89    11    15   am
    90    31    28    1
    91    15    16    1
    92   113   110    1
    93    28    27    1
    94    28    29    1
    95    16    19    1
    96    16    17    1
    97   109   110    1
    98   110   111    1
    99    19    20    1
   100    29    30    2
   101    20    22   ar
   102    20    21   ar
   103    22    24   ar
   104    21    23   ar
   105    24    25   ar
   106    23    25   ar
   107    25    26    1
   108    17    18    2
   109   111   112    2
