@<TRIPOS>MOLECULE
tmp/1hrvA00.pdb
 221 210 0 0 0
SMALL
GASTEIGER

@<TRIPOS>ATOM
      1  N         43.0660    0.5170  131.4000 N.3    88  ILE88      -0.1231
      2  CA        42.9900    1.3500  130.1860 C.3    88  ILE88       0.1692
      3  C         41.8860    2.4110  130.2710 C.2    88  ILE88       0.2592
      4  O         40.6910    2.1110  130.4540 O.2    88  ILE88      -0.2718
      5  CB        42.8180    0.4350  128.9660 C.3    88  ILE88       0.0266
      6  CG1       44.1130   -0.3740  128.8050 C.3    88  ILE88       0.0019
      7  CG2       42.4460    1.2730  127.7280 C.3    88  ILE88       0.0020
      8  CD1       44.2110   -1.3380  127.6070 C.3    88  ILE88       0.0001
      9  N         42.3000    3.6480  130.0620 N.am   89  ASN89      -0.1960
     10  CA        41.3740    4.7850  129.9390 C.3    89  ASN89       0.1819
     11  C         42.0550    5.8480  129.1190 C.2    89  ASN89       0.2621
     12  O         43.2490    5.7130  128.8390 O.2    89  ASN89      -0.2715
     13  CB        40.9770    5.3430  131.3290 C.3    89  ASN89       0.1195
     14  CG        42.1040    6.0270  132.1310 C.2    89  ASN89       0.2630
     15  OD1       42.2490    7.2530  132.0860 O.2    89  ASN89      -0.2716
     16  ND2       42.9060    5.3030  132.8900 N.am   89  ASN89      -0.0877
     17  N         41.2700    6.8390  128.7800 N.am   90  LEU90      -0.1963
     18  CA        41.6920    7.9640  127.9640 C.3    90  LEU90       0.1728
     19  C         41.3450    9.2660  128.7110 C.2    90  LEU90       0.2616
     20  O         41.4810   10.3510  128.1300 O.2    90  LEU90      -0.2715
     21  CB        40.9470    7.9010  126.6220 C.3    90  LEU90       0.0311
     22  CG        41.8120    7.7080  125.3580 C.3    90  LEU90       0.0022
     23  CD1       42.4460    6.3180  125.2180 C.3    90  LEU90       0.0001
     24  CD2       40.9920    7.9010  124.0770 C.3    90  LEU90       0.0001
     25  N         40.9140    9.0910  129.9610 N.am   91  SER91      -0.1950
     26  CA        40.5400   10.2680  130.7640 C.3    91  SER91       0.1924
     27  C         41.3590   10.4240  132.0540 C.2    91  SER91       0.2314
     28  O         40.8510   10.9100  133.0730 O.2    91  SER91      -0.2863
     29  CB        39.0390   10.3060  130.9950 C.3    91  SER91       0.2116
     30  OG        38.6870    9.5720  132.1460 O.3    91  SER91      -0.2180
     31  N         38.3410   15.6890  123.9180 N.3   100  LEU100     -0.1231
     32  CA        37.3070   14.7330  123.6070 C.3   100  LEU100      0.1693
     33  C         35.9580   15.1450  124.1930 C.2   100  LEU100      0.2591
     34  O         34.9140   14.7910  123.6260 O.2   100  LEU100     -0.2718
     35  CB        37.6430   13.3460  124.1010 C.3   100  LEU100      0.0284
     36  CG        38.5830   12.5230  123.3840 C.3   100  LEU100      0.0019
     37  CD1       37.9700   11.8920  122.1290 C.3   100  LEU100      0.0001
     38  CD2       39.7570   13.3850  122.9000 C.3   100  LEU100      0.0001
     39  N         35.9910   15.8120  125.3340 N.am  101  GLU101     -0.1979
     40  CA        34.6570   16.0050  126.0320 C.3   101  GLU101      0.1602
     41  C         33.9540   17.2190  125.5130 C.2   101  GLU101      0.2287
     42  O         33.0550   17.7370  126.1670 O.2   101  GLU101     -0.2864
     43  CB        34.7720   15.9640  127.4960 C.3   101  GLU101      0.0415
     44  CG        35.4730   14.7400  128.1850 C.3   101  GLU101      0.1163
     45  CD        35.4000   14.8930  129.6580 C.2   101  GLU101      0.3649
     46  OE1       35.0350   16.1780  129.8850 O.co2 101  GLU101     -0.2457
     47  OE2       35.5070   14.1180  130.5610 O.co2 101  GLU101     -0.2457
     48  N         31.6350    9.5830  120.6320 N.3   106  VAL106     -0.1301
     49  CA        32.8590    9.7740  119.7030 C.3   106  VAL106      0.1246
     50  C         33.1220    8.4180  119.1970 C.3   106  VAL106      0.2009
     51  O         32.8230    7.4330  119.9740 O.3   106  VAL106     -0.2188
     52  CB        33.7880   10.4560  120.7150 C.3   106  VAL106      0.0202
     53  CG1       34.8210    9.5990  121.3160 C.3   106  VAL106      0.0016
     54  CG2       34.2390   11.7430  120.1250 C.3   106  VAL106      0.0016
     55  N         36.0760    6.1530  116.8140 N.3   108  PHE108     -0.1241
     56  CA        37.3420    6.2440  116.0660 C.3   108  PHE108      0.1605
     57  C         38.2260    5.0050  116.2760 C.2   108  PHE108      0.2264
     58  O         38.0000    4.2110  117.2000 O.2   108  PHE108     -0.2867
     59  CB        38.1220    7.5050  116.5130 C.3   108  PHE108      0.0534
     60  CG        38.2780    7.6670  118.0430 C.ar  108  PHE108     -0.0203
     61  CD1       39.1090    6.8010  118.7630 C.ar  108  PHE108     -0.0042
     62  CD2       37.6030    8.6960  118.7260 C.ar  108  PHE108     -0.0042
     63  CE1       39.2580    6.9500  120.1480 C.ar  108  PHE108     -0.0003
     64  CE2       37.7510    8.8420  120.1120 C.ar  108  PHE108     -0.0003
     65  CZ        38.5780    7.9680  120.8220 C.ar  108  PHE108     -0.0000
     66  N         42.1390    3.7000  116.9010 N.3   110  SER110     -0.1217
     67  CA        43.2440    4.2610  117.6580 C.3   110  SER110      0.1889
     68  C         44.5560    3.7500  117.1340 C.2   110  SER110      0.2288
     69  O         44.6700    2.6010  116.7120 O.2   110  SER110     -0.2866
     70  CB        43.1360    3.8580  119.1240 C.3   110  SER110      0.2089
     71  OG        41.8610    4.2090  119.6270 O.3   110  SER110     -0.2183
     72  N         48.2900    3.5470  118.6130 N.3   112  TYR112     -0.1241
     73  CA        49.1010    3.7040  119.8280 C.3   112  TYR112      0.1605
     74  C         50.5900    3.7140  119.5000 C.2   112  TYR112      0.2264
     75  O         51.0540    2.9710  118.6390 O.2   112  TYR112     -0.2867
     76  CB        48.8740    2.5220  120.7750 C.3   112  TYR112      0.0534
     77  CG        47.6730    2.7250  121.6800 C.ar  112  TYR112     -0.0201
     78  CD1       47.7900    3.5190  122.8230 C.ar  112  TYR112     -0.0009
     79  CD2       46.4590    2.1230  121.3560 C.ar  112  TYR112     -0.0009
     80  CE1       46.6730    3.7290  123.6350 C.ar  112  TYR112      0.0417
     81  CE2       45.3460    2.3270  122.1680 C.ar  112  TYR112      0.0417
     82  CZ        45.4500    3.1330  123.3050 C.ar  112  TYR112      0.1957
     83  OH        44.3610    3.3370  124.0900 O.3   112  TYR112     -0.2866
     84  N         54.0790    3.4990  121.8920 N.3   114  ILE114     -0.1245
     85  CA        54.5610    3.2740  123.2900 C.3   114  ILE114      0.1561
     86  C         56.0810    3.4780  123.3530 C.2   114  ILE114      0.2260
     87  O         56.8500    2.7340  122.7490 O.2   114  ILE114     -0.2867
     88  CB        54.2120    1.8400  123.7490 C.3   114  ILE114      0.0252
     89  CG1       52.7180    1.5290  123.5980 C.3   114  ILE114      0.0019
     90  CG2       54.5710    1.5670  125.2180 C.3   114  ILE114      0.0019
     91  CD1       52.2860    0.2120  124.2450 C.3   114  ILE114      0.0001
     92  N         54.1760   -6.3350  126.4300 N.3   134  ALA134     -0.1245
     93  CA        52.8710   -5.7130  126.7530 C.3   134  ALA134      0.1562
     94  C         51.7450   -6.6140  126.2450 C.2   134  ALA134      0.2260
     95  O         51.6930   -6.9610  125.0600 O.2   134  ALA134     -0.2867
     96  CB        52.7710   -4.3350  126.0980 C.3   134  ALA134      0.0290
     97  N         47.4080   -7.6050  126.4400 N.3   136  TYR136     -0.1241
     98  CA        46.0300   -7.1080  126.6250 C.3   136  TYR136      0.1605
     99  C         45.1940   -8.2060  127.2870 C.2   136  TYR136      0.2264
    100  O         44.8710   -9.2260  126.6670 O.2   136  TYR136     -0.2867
    101  CB        45.4160   -6.7330  125.2700 C.3   136  TYR136      0.0534
    102  CG        43.9580   -6.2700  125.3750 C.ar  136  TYR136     -0.0201
    103  CD1       43.5480   -5.4820  126.4580 C.ar  136  TYR136     -0.0009
    104  CD2       43.0320   -6.6330  124.3870 C.ar  136  TYR136     -0.0009
    105  CE1       42.2140   -5.0680  126.5600 C.ar  136  TYR136      0.0417
    106  CE2       41.6980   -6.2170  124.4880 C.ar  136  TYR136      0.0417
    107  CZ        41.2890   -5.4360  125.5760 C.ar  136  TYR136      0.1957
    108  OH        39.9930   -5.0370  125.6780 O.3   136  TYR136     -0.2866
    109  N         46.7020  -10.4100  121.8330 N.3   158  PRO158     -0.2102
    110  CA        47.7650   -9.7370  121.0380 C.3   158  PRO158      0.1504
    111  C         48.8380   -9.2250  121.9280 C.2   158  PRO158      0.2576
    112  O         48.4600   -8.5380  122.8690 O.2   158  PRO158     -0.2718
    113  CB        47.0230   -8.6550  120.2710 C.3   158  PRO158      0.0282
    114  CG        45.7960   -8.4440  120.9110 C.3   158  PRO158      0.0208
    115  CD        45.5270   -9.5670  121.9180 C.3   158  PRO158      0.0893
    116  N         50.0930   -9.5510  121.6460 N.am  159  SER159     -0.1938
    117  CA        51.1630   -8.8180  122.5210 C.3   159  SER159      0.2055
    118  C         52.2700   -8.3530  121.6210 C.2   159  SER159      0.2639
    119  O         52.3990   -8.8860  120.4700 O.2   159  SER159     -0.2714
    120  CB        51.3170   -9.5980  123.7220 C.3   159  SER159      0.2130
    121  OG        52.2660  -10.4730  123.8720 O.3   159  SER159     -0.2179
    122  N         52.9840   -7.2590  121.9000 N.am  160  VAL160     -0.2030
    123  CA        54.0540   -6.7140  121.1470 C.3   160  VAL160      0.1282
    124  C         55.3740   -6.7860  122.0220 C.3   160  VAL160      0.2035
    125  O         55.1800   -6.3170  123.2030 O.3   160  VAL160     -0.2185
    126  CB        54.0020   -5.1740  120.9030 C.3   160  VAL160      0.0226
    127  CG1       54.5140   -4.8330  119.5510 C.3   160  VAL160      0.0018
    128  CG2       52.8120   -4.5020  121.3520 C.3   160  VAL160      0.0018
    129  N         51.0360    0.1800  116.7070 N.3   170  PHE170     -0.1241
    130  CA        50.0110   -0.6760  116.0180 C.3   170  PHE170      0.1605
    131  C         48.6910    0.0770  116.0800 C.2   170  PHE170      0.2264
    132  O         48.6090    1.1590  116.6550 O.2   170  PHE170     -0.2867
    133  CB        49.8680   -1.9980  116.7610 C.3   170  PHE170      0.0534
    134  CG        49.6170   -1.7450  118.2330 C.ar  170  PHE170     -0.0203
    135  CD1       50.6980   -1.5090  119.0820 C.ar  170  PHE170     -0.0042
    136  CD2       48.3090   -1.7250  118.7180 C.ar  170  PHE170     -0.0042
    137  CE1       50.4720   -1.2540  120.4340 C.ar  170  PHE170     -0.0003
    138  CE2       48.0810   -1.4710  120.0730 C.ar  170  PHE170     -0.0003
    139  CZ        49.1640   -1.2350  120.9320 C.ar  170  PHE170     -0.0000
    140  N         44.2490   -0.2400  116.5530 N.3   172  VAL172     -0.1245
    141  CA        43.1300   -1.0980  116.9590 C.3   172  VAL172      0.1561
    142  C         41.8280   -0.5680  116.3630 C.2   172  VAL172      0.2260
    143  O         41.6090    0.6510  116.3260 O.2   172  VAL172     -0.2867
    144  CB        43.0620   -1.0960  118.4920 C.3   172  VAL172      0.0252
    145  CG1       41.7670   -0.4960  119.0370 C.3   172  VAL172      0.0019
    146  CG2       43.1750   -2.4900  119.1080 C.3   172  VAL172      0.0019
    147  N         36.7610   -0.6520  119.2360 N.3   175  VAL175     -0.1245
    148  CA        36.3580   -1.8340  120.1040 C.3   175  VAL175      0.1561
    149  C         35.2040   -1.5690  121.1000 C.2   175  VAL175      0.2260
    150  O         34.9360   -2.3780  122.0040 O.2   175  VAL175     -0.2867
    151  CB        37.4940   -2.3880  121.0010 C.3   175  VAL175      0.0252
    152  CG1       38.5710   -3.1330  120.2120 C.3   175  VAL175      0.0019
    153  CG2       38.2280   -1.3290  121.8200 C.3   175  VAL175      0.0019
    154  N         31.5170    5.5730  121.5400 N.3   181  TYR181     -0.1227
    155  CA        31.9540    5.5170  122.9640 C.3   181  TYR181      0.1736
    156  C         31.1770    6.6020  123.6840 C.2   181  TYR181      0.2595
    157  O         31.0750    7.6850  122.9810 O.2   181  TYR181     -0.2718
    158  CB        33.3990    5.6720  122.4510 C.3   181  TYR181      0.0548
    159  CG        34.4470    4.7000  122.0160 C.ar  181  TYR181     -0.0200
    160  CD1       34.4800    3.3780  122.4240 C.ar  181  TYR181     -0.0009
    161  CD2       35.4890    5.1430  121.2260 C.ar  181  TYR181     -0.0009
    162  CE1       35.4780    2.4980  122.0690 C.ar  181  TYR181      0.0417
    163  CE2       36.5190    4.2760  120.8360 C.ar  181  TYR181      0.0417
    164  CZ        36.4710    2.9750  121.2630 C.ar  181  TYR181      0.1957
    165  OH        37.4590    2.1730  120.8070 O.3   181  TYR181     -0.2866
    166  N         30.6630    6.4300  124.8720 N.am  182  ASN182     -0.1960
    167  CA        29.9470    7.5990  125.4990 C.3   182  ASN182      0.1819
    168  C         31.0260    8.4700  126.1880 C.2   182  ASN182      0.2618
    169  O         31.6930    7.8560  127.1010 O.2   182  ASN182     -0.2715
    170  CB        28.9940    7.1400  126.5390 C.3   182  ASN182      0.1195
    171  CG        27.7050    6.6070  126.1220 C.2   182  ASN182      0.2630
    172  OD1       26.6210    6.9950  126.5710 O.2   182  ASN182     -0.2716
    173  ND2       27.7910    5.6080  125.2390 N.am  182  ASN182     -0.0877
    174  N         31.1450    9.7090  125.8450 N.am  183  CYS183     -0.2021
    175  CA        31.9750   10.6260  126.5970 C.3   183  CYS183      0.1398
    176  C         31.2490   10.9390  127.9290 C.3   183  CYS183      0.2045
    177  O         32.0080   11.3930  128.8540 O.3   183  CYS183     -0.2185
    178  CB        32.2620   11.9530  125.9600 C.3   183  CYS183      0.0930
    179  SG        33.3390   11.6460  124.5720 S.3   183  CYS183     -0.0802
    180  N         30.4450    6.8610  133.7320 N.3   199  ILE199     -0.1245
    181  CA        30.8660    6.1620  132.4760 C.3   199  ILE199      0.1561
    182  C         31.7730    5.0020  132.8540 C.2   199  ILE199      0.2260
    183  O         32.0290    4.0460  132.1090 O.2   199  ILE199     -0.2867
    184  CB        31.4050    7.2570  131.5320 C.3   199  ILE199      0.0252
    185  CG1       32.0960    6.6790  130.2560 C.3   199  ILE199      0.0019
    186  CG2       32.4110    8.2170  132.2760 C.3   199  ILE199      0.0019
    187  CD1       33.3630    7.5710  129.9180 C.3   199  ILE199      0.0001
    188  N         32.4030    2.1250  130.0270 N.3   203  ASN203     -0.1300
    189  CA        33.7380    2.0390  129.4260 C.3   203  ASN203      0.1287
    190  C         34.5980    0.9900  130.1250 C.3   203  ASN203      0.2011
    191  O         35.5490    1.2720  130.8770 O.3   203  ASN203     -0.2175
    192  CB        34.3690    3.4310  129.4210 C.3   203  ASN203      0.0745
    193  CG        35.7600    3.5070  130.0330 C.3   203  ASN203      0.2433
    194  OD1       36.4680    2.5050  130.2410 O.3   203  ASN203     -0.2034
    195  ND2       36.1640    4.7540  130.3380 N.3   203  ASN203     -0.0967
    196  N         37.0170   -1.8690  129.2330 N.3   205  MET205     -0.1245
    197  CA        37.8720   -2.2730  128.1120 C.3   205  MET205      0.1570
    198  C         39.1090   -3.0930  128.4630 C.2   205  MET205      0.2261
    199  O         39.8640   -3.4630  127.5310 O.2   205  MET205     -0.2867
    200  CB        38.3610   -1.0780  127.2810 C.3   205  MET205      0.0387
    201  CG        37.2200   -0.2630  126.7520 C.3   205  MET205      0.0595
    202  SD        36.9130   -0.9070  125.0600 S.3   205  MET205     -0.1393
    203  CE        35.1180   -0.6100  124.9710 C.3   205  MET205      0.0692
    204  N         46.1110   -3.3310  130.0310 N.3   208  MET208     -0.1245
    205  CA        47.3080   -3.6060  129.2270 C.3   208  MET208      0.1570
    206  C         48.5110   -3.7480  130.1450 C.2   208  MET208      0.2261
    207  O         48.7730   -2.8690  130.9700 O.2   208  MET208     -0.2867
    208  CB        47.5850   -2.4590  128.2450 C.3   208  MET208      0.0387
    209  CG        48.9440   -2.6110  127.5410 C.3   208  MET208      0.0595
    210  SD        48.9760   -1.9540  125.8840 S.3   208  MET208     -0.1393
    211  CE        48.4870   -0.2440  125.8950 C.3   208  MET208      0.0692
    212  N         48.2600    8.1240  122.3560 N.3   229  HIS229     -0.1241
    213  CA        47.0770    7.6560  121.6110 C.3   229  HIS229      0.1621
    214  C         46.6920    8.6650  120.5550 C.2   229  HIS229      0.2264
    215  O         46.6170    9.8440  120.8590 O.2   229  HIS229     -0.2867
    216  CB        45.9110    7.4160  122.5330 C.3   229  HIS229      0.0745
    217  CG        44.6170    7.2040  121.8230 C.ar  229  HIS229      0.0817
    218  ND1       43.8670    8.2480  121.3150 N.ar  229  HIS229     -0.2268
    219  CD2       43.9330    6.0440  121.5580 C.ar  229  HIS229      0.1154
    220  CE1       42.7490    7.6990  120.7690 C.ar  229  HIS229      0.1986
    221  NE2       42.7730    6.4030  120.9040 N.ar  229  HIS229     -0.2212
@<TRIPOS>BOND
     1   130   131    1
     2   130   129    1
     3   130   133    1
     4    56    57    1
     5    56    59    1
     6    56    55    1
     7   131   132    2
     8    57    58    2
     9   143   142    2
    10   142   141    1
    11    59    60    1
    12   140   141    1
    13    69    68    2
    14   133   134    1
    15    66    67    1
    16   141   144    1
    17    68    67    1
    18    67    70    1
    19    60    62   ar
    20    60    61   ar
    21   134   136   ar
    22   134   135   ar
    23   144   145    1
    24   144   146    1
    25    72    73    1
    26    75    74    2
    27   136   138   ar
    28    62    64   ar
    29    61    63   ar
    30   135   137   ar
    31    70    71    1
    32    50    49    1
    33    50    51    1
    34   147   148    1
    35    74    73    1
    36   127   126    1
    37    49    48    1
    38    49    52    1
    39    73    76    1
    40   138   139   ar
    41   148   151    1
    42   148   149    1
    43    64    65   ar
    44    54    52    1
    45    63    65   ar
    46   152   151    1
    47   113   114    1
    48   113   110    1
    49   137   139   ar
    50   119   118    2
    51   214   215    2
    52   214   213    1
    53    52    53    1
    54   220   221   ar
    55   220   218   ar
    56    76    77    1
    57   165   164    1
    58   163   161   ar
    59   163   164   ar
    60   126   123    1
    61   126   128    1
    62   221   219   ar
    63   114   115    1
    64   151   153    1
    65   110   109    1
    66   110   111    1
    67   149   150    2
    68   123   122    1
    69   123   124    1
    70   161   159   ar
    71   164   162   ar
    72   218   217   ar
    73    79    77   ar
    74    79    81   ar
    75   154   155    1
    76   219   217   ar
    77   213   212    1
    78   213   216    1
    79   118   122   am
    80   118   117    1
    81   116   111   am
    82   116   117    1
    83    77    78   ar
    84   217   216    1
    85   109   115    1
    86    84    85    1
    87   111   112    2
    88   159   160   ar
    89   159   158    1
    90   124   125    1
    91   162   160   ar
    92    37    36    1
    93    81    82   ar
    94   158   155    1
    95   117   120    1
    96    87    86    2
    97    78    80   ar
    98    38    36    1
    99   155   156    1
   100   157   156    2
   101    85    86    1
   102    85    88    1
   103    82    80   ar
   104    82    83    1
   105    36    35    1
   106    89    88    1
   107    89    91    1
   108    32    31    1
   109    32    35    1
   110    32    33    1
   111    34    33    2
   112   156   166   am
   113   120   121    1
   114    88    90    1
   115    24    22    1
   116    33    39   am
   117   104   106   ar
   118   104   102   ar
   119   106   107   ar
   120   179   178    1
   121   166   167    1
   122   203   202    1
   123   202   201    1
   124    95    94    2
   125    23    22    1
   126   173   171   am
   127   101   102    1
   128   101    98    1
   129    39    40    1
   130    22    21    1
   131   102   103   ar
   132   167   168    1
   133   167   170    1
   134    41    40    1
   135    41    42    2
   136   107   108    1
   137   107   105   ar
   138   174   168   am
   139   174   175    1
   140   210   211    1
   141   210   209    1
   142   178   175    1
   143    40    43    1
   144    96    93    1
   145   171   170    1
   146   171   172    2
   147   168   169    2
   148    94    93    1
   149    92    93    1
   150    97    98    1
   151   103   105   ar
   152   175   176    1
   153    21    18    1
   154    98    99    1
   155   100    99    2
   156   201   200    1
   157   200   197    1
   158    43    44    1
   159   199   198    2
   160   209   208    1
   161     8     6    1
   162     7     5    1
   163   176   177    1
   164    18    19    1
   165    18    17    1
   166   197   198    1
   167   197   196    1
   168    20    19    2
   169    44    45    1
   170   208   205    1
   171    19    25   am
   172    17    11   am
   173     6     5    1
   174    12    11    2
   175     5     2    1
   176    11    10    1
   177   205   204    1
   178   205   206    1
   179   192   189    1
   180   192   193    1
   181   189   188    1
   182   189   190    1
   183    45    46   ar
   184    45    47   ar
   185   187   185    1
   186    10     9    1
   187    10    13    1
   188    25    26    1
   189   193   194    1
   190   193   195    1
   191     9     3   am
   192   190   191    1
   193   206   207    2
   194     2     3    1
   195     2     1    1
   196   194   191    1
   197   185   184    1
   198     3     4    2
   199    26    29    1
   200    26    27    1
   201    29    30    1
   202    13    14    1
   203   184   186    1
   204   184   181    1
   205    27    28    2
   206    15    14    2
   207   183   182    2
   208    14    16   am
   209   181   182    1
   210   181   180    1
