@<TRIPOS>MOLECULE
tmp/1hsbA01.pdb
 136 128 0 0 0
SMALL
GASTEIGER

@<TRIPOS>ATOM
      1  N         58.4640   20.2770   99.0130 N.3    70  GLN70      -0.1245
      2  CA        57.0770   20.3910   98.6140 C.3    70  GLN70       0.1566
      3  C         56.8390   19.6330   97.3260 C.2    70  GLN70       0.2260
      4  O         55.7760   19.0260   97.1690 O.2    70  GLN70      -0.2867
      5  CB        56.6900   21.8260   98.4080 C.3    70  GLN70       0.0367
      6  CG        55.1970   22.0010   98.0290 C.3    70  GLN70       0.0905
      7  CD        54.2770   21.5630   99.1030 C.2    70  GLN70       0.2608
      8  OE1       54.4460   22.0280  100.2170 O.2    70  GLN70      -0.2717
      9  NE2       53.2670   20.7060   98.9540 N.am   70  GLN70      -0.0878
     10  N         56.3240   16.0560   98.3750 N.3    73  THR73      -0.1203
     11  CA        55.0020   15.9030   99.0190 C.3    73  THR73       0.1994
     12  C         53.9140   15.8630   97.9450 C.2    73  THR73       0.2617
     13  O         53.0700   14.9830   97.9700 O.2    73  THR73      -0.2717
     14  CB        54.7320   17.0720   99.9430 C.3    73  THR73       0.1784
     15  OG1       55.7540   17.0270  100.9150 O.3    73  THR73      -0.2211
     16  CG2       53.4080   17.0140  100.5920 C.3    73  THR73       0.0376
     17  N         53.9420   16.7810   96.9800 N.am   74  ASP74      -0.1973
     18  CA        53.0310   16.7430   95.8420 C.3    74  ASP74       0.1709
     19  C         53.1320   15.4680   95.0150 C.2    74  ASP74       0.2293
     20  O         52.1670   14.9860   94.4320 O.2    74  ASP74      -0.2864
     21  CB        53.3190   17.9140   94.9130 C.3    74  ASP74       0.1436
     22  CG        52.8580   19.3020   95.3100 C.2    74  ASP74       0.3671
     23  OD1       52.3380   19.5680   96.4080 O.co2  74  ASP74      -0.2456
     24  OD2       52.9830   20.1820   94.4600 O.co2  74  ASP74      -0.2456
     25  N         51.2640   13.0110   96.9590 N.3    77  ASP77      -0.1239
     26  CA        49.8760   13.3730   96.9510 C.3    77  ASP77       0.1674
     27  C         49.2580   13.1670   95.6150 C.2    77  ASP77       0.2266
     28  O         48.0700   12.8710   95.5660 O.2    77  ASP77      -0.2867
     29  CB        49.7190   14.7770   97.3110 C.3    77  ASP77       0.1410
     30  CG        50.0580   15.1110   98.7380 C.2    77  ASP77       0.3668
     31  OD1       50.1990   14.2410   99.5800 O.co2  77  ASP77      -0.2456
     32  OD2       50.2230   16.3040   98.9920 O.co2  77  ASP77      -0.2456
     33  N         48.2370    9.6640   96.0390 N.3    80  THR80      -0.1203
     34  CA        47.1350    9.5590   96.9720 C.3    80  THR80       0.1994
     35  C         45.8110    9.9920   96.4100 C.2    80  THR80       0.2617
     36  O         44.8460    9.2350   96.4580 O.2    80  THR80      -0.2717
     37  CB        47.4630   10.3840   98.1870 C.3    80  THR80       0.1784
     38  OG1       48.7080    9.8170   98.5800 O.3    80  THR80      -0.2211
     39  CG2       46.4030   10.3910   99.3030 C.3    80  THR80       0.0376
     40  N         45.7720   11.1860   95.8220 N.am   81  LEU81      -0.1979
     41  CA        44.5430   11.6780   95.2540 C.3    81  LEU81       0.1596
     42  C         44.0850   10.8170   94.0780 C.2    81  LEU81       0.2287
     43  O         42.8690   10.6060   93.9350 O.2    81  LEU81      -0.2864
     44  CB        44.7340   13.1730   94.8690 C.3    81  LEU81       0.0297
     45  CG        44.4220   14.1670   95.9790 C.3    81  LEU81       0.0022
     46  CD1       45.2250   13.9540   97.2570 C.3    81  LEU81       0.0001
     47  CD2       44.7740   15.5040   95.4420 C.3    81  LEU81       0.0001
     48  N         42.1990    8.3020   95.8000 N.3    84  TYR84      -0.1241
     49  CA        40.9560    8.8250   96.3330 C.3    84  TYR84       0.1605
     50  C         39.8620    8.9090   95.2760 C.2    84  TYR84       0.2264
     51  O         38.6810    8.6170   95.5470 O.2    84  TYR84      -0.2867
     52  CB        41.1600   10.2500   96.9370 C.3    84  TYR84       0.0534
     53  CG        41.9450   10.4280   98.2430 C.ar   84  TYR84      -0.0201
     54  CD1       42.2650    9.3570   99.0390 C.ar   84  TYR84      -0.0009
     55  CD2       42.3090   11.6910   98.6410 C.ar   84  TYR84      -0.0009
     56  CE1       42.9040    9.5380  100.2560 C.ar   84  TYR84       0.0417
     57  CE2       42.9510   11.8880   99.8530 C.ar   84  TYR84       0.0417
     58  CZ        43.2620   10.8060  100.6590 C.ar   84  TYR84       0.1957
     59  OH        43.8880   10.9620  101.8940 O.3    84  TYR84      -0.2866
     60  N         48.1610   19.1330   90.7960 N.3    95  ILE95      -0.1245
     61  CA        47.8490   19.7540   92.0780 C.3    95  ILE95       0.1561
     62  C         48.4260   21.1660   91.9250 C.2    95  ILE95       0.2260
     63  O         49.5350   21.3180   91.3660 O.2    95  ILE95      -0.2867
     64  CB        48.5390   19.0100   93.2530 C.3    95  ILE95       0.0252
     65  CG1       47.8310   17.6910   93.4740 C.3    95  ILE95       0.0019
     66  CG2       48.5060   19.8220   94.5360 C.3    95  ILE95       0.0019
     67  CD1       48.4530   16.8670   94.6540 C.3    95  ILE95       0.0001
     68  N         48.7290   24.9650   94.2990 N.3    97  MET97      -0.1245
     69  CA        48.5020   25.5540   95.6050 C.3    97  MET97       0.1570
     70  C         48.9190   27.0090   95.5250 C.2    97  MET97       0.2261
     71  O         49.9310   27.3600   94.9000 O.2    97  MET97      -0.2867
     72  CB        49.3370   24.8850   96.6660 C.3    97  MET97       0.0387
     73  CG        49.3680   25.6700   97.9710 C.3    97  MET97       0.0595
     74  SD        49.6810   24.6080   99.3920 S.3    97  MET97      -0.1393
     75  CE        51.3840   24.2140   99.1080 C.3    97  MET97       0.0692
     76  N         45.7160   29.9330  102.1670 N.3   114  ARG114     -0.1245
     77  CA        46.4460   28.7700  101.6590 C.3   114  ARG114      0.1563
     78  C         45.4220   27.8090  101.0630 C.2   114  ARG114      0.2260
     79  O         44.7390   27.0400  101.7850 O.2   114  ARG114     -0.2867
     80  CB        47.2330   28.0320  102.7780 C.3   114  ARG114      0.0307
     81  CG        47.8150   26.7070  102.3060 C.3   114  ARG114      0.0489
     82  CD        47.1950   25.5810  103.0830 C.3   114  ARG114      0.2205
     83  NE        47.5110   24.3010  102.4670 N.pl3 114  ARG114     -0.0865
     84  CZ        46.7200   23.7440  101.5240 C.cat 114  ARG114      0.5346
     85  NH1       45.5750   24.3000  101.0900 N.pl3 114  ARG114      0.1354
     86  NH2       47.1360   22.5880  101.0350 N.pl3 114  ARG114      0.1354
     87  N         44.4430   24.9540   97.7450 N.3   116  ASP116     -0.1239
     88  CA        44.9870   24.1490   96.6560 C.3   116  ASP116      0.1674
     89  C         43.8990   23.6010   95.7550 C.2   116  ASP116      0.2266
     90  O         42.7010   23.8080   96.0330 O.2   116  ASP116     -0.2867
     91  CB        45.8620   22.9690   97.1670 C.3   116  ASP116      0.1410
     92  CG        45.2000   21.9230   98.0350 C.2   116  ASP116      0.3668
     93  OD1       44.0430   21.5900   97.8630 O.co2 116  ASP116     -0.2456
     94  OD2       45.8340   21.4090   98.9530 O.co2 116  ASP116     -0.2456
     95  N         40.2040   21.9540   95.9850 N.3   123  TYR123     -0.1241
     96  CA        40.3430   20.7060   96.7490 C.3   123  TYR123      0.1605
     97  C         40.2760   21.0010   98.2490 C.2   123  TYR123      0.2264
     98  O         39.2210   20.8450   98.8840 O.2   123  TYR123     -0.2867
     99  CB        41.6850   20.0440   96.4280 C.3   123  TYR123      0.0534
    100  CG        41.8560   18.6770   97.0960 C.ar  123  TYR123     -0.0201
    101  CD1       41.2310   17.5470   96.5530 C.ar  123  TYR123     -0.0009
    102  CD2       42.6390   18.5560   98.2500 C.ar  123  TYR123     -0.0009
    103  CE1       41.3870   16.2980   97.1660 C.ar  123  TYR123      0.0417
    104  CE2       42.7950   17.3070   98.8620 C.ar  123  TYR123      0.0417
    105  CZ        42.1690   16.1780   98.3210 C.ar  123  TYR123      0.1957
    106  OH        42.3190   14.9650   98.9180 O.3   123  TYR123     -0.2866
    107  N         41.4290   14.2680  103.5150 N.3   143  THR143     -0.1218
    108  CA        42.6050   15.0860  103.8040 C.3   143  THR143      0.1862
    109  C         42.3140   15.9620  105.0230 C.2   143  THR143      0.2287
    110  O         43.1370   16.0280  105.9390 O.2   143  THR143     -0.2866
    111  CB        42.9960   16.0410  102.6250 C.3   143  THR143      0.1770
    112  OG1       43.1360   15.2380  101.4550 O.3   143  THR143     -0.2211
    113  CG2       44.2420   16.8650  102.9350 C.3   143  THR143      0.0375
    114  N         42.7210   13.9580  108.2670 N.3   146  LYS146     -0.1231
    115  CA        44.1350   13.8230  108.6130 C.3   146  LYS146      0.1693
    116  C         44.7170   15.1460  109.1300 C.2   146  LYS146      0.2592
    117  O         45.4780   15.1640  110.1090 O.2   146  LYS146     -0.2718
    118  CB        44.9630   13.4570  107.4330 C.3   146  LYS146      0.0285
    119  CG        44.6610   12.1630  106.7240 C.3   146  LYS146      0.0035
    120  CD        45.6540   11.9640  105.5710 C.3   146  LYS146      0.0206
    121  CE        45.4470   10.6670  104.7750 C.3   146  LYS146      0.1093
    122  NZ        46.3170   10.6720  103.5900 N.3   146  LYS146     -0.1314
    123  N         44.3420   16.3000  108.5680 N.am  147  TRP147     -0.1976
    124  CA        45.0060   17.5360  108.9500 C.3   147  TRP147      0.1640
    125  C         44.4820   18.1220  110.2520 C.2   147  TRP147      0.2290
    126  O         45.2290   18.7900  111.0010 O.2   147  TRP147     -0.2864
    127  CB        44.9100   18.5440  107.7700 C.3   147  TRP147      0.0576
    128  CG        45.8580   18.1950  106.6100 C.ar  147  TRP147      0.0006
    129  CD1       46.6280   17.0480  106.5950 C.ar  147  TRP147      0.0946
    130  CD2       46.0750   18.9360  105.4790 C.ar  147  TRP147      0.0152
    131  NE1       47.3030   17.0440  105.4770 N.ar  147  TRP147     -0.2442
    132  CE2       46.9670   18.1260  104.7700 C.ar  147  TRP147      0.0810
    133  CE3       45.6010   20.0910  104.8810 C.ar  147  TRP147      0.0012
    134  CZ2       47.4910   18.5000  103.5430 C.ar  147  TRP147      0.0191
    135  CZ3       46.1160   20.4800  103.6330 C.ar  147  TRP147      0.0001
    136  CH2       47.0070   19.6560  102.9500 C.ar  147  TRP147      0.0015
@<TRIPOS>BOND
     1    60    61    1
     2    63    62    2
     3    62    61    1
     4    61    64    1
     5    64    65    1
     6    64    66    1
     7    65    67    1
     8    43    42    2
     9    42    41    1
    10    68    69    1
    11    20    19    2
    12    24    22   ar
    13    44    41    1
    14    44    45    1
    15    71    70    2
    16    21    22    1
    17    21    18    1
    18    19    18    1
    19    41    40    1
    20    50    51    2
    21    50    49    1
    22    22    23   ar
    23    47    45    1
    24    70    69    1
    25    28    27    2
    26    69    72    1
    27    27    26    1
    28    89    90    2
    29    89    88    1
    30    48    49    1
    31    40    35   am
    32    18    17    1
    33    45    46    1
    34    95    96    1
    35    33    34    1
    36    49    52    1
    37    35    36    2
    38    35    34    1
    39    99    96    1
    40    99   100    1
    41   101   100   ar
    42   101   103   ar
    43    88    91    1
    44    88    87    1
    45    72    73    1
    46    96    97    1
    47    52    53    1
    48    26    25    1
    49    26    29    1
    50    34    37    1
    51    17    12   am
    52   100   102   ar
    53   103   105   ar
    54    91    92    1
    55     4     3    2
    56    29    30    1
    57     3     2    1
    58    93    92   ar
    59    12    13    2
    60    12    11    1
    61    73    74    1
    62     6     5    1
    63     6     7    1
    64    92    94   ar
    65    37    38    1
    66    37    39    1
    67    53    55   ar
    68    53    54   ar
    69    97    98    2
    70   102   104   ar
    71   105   104   ar
    72   105   106    1
    73    10    11    1
    74     5     2    1
    75     2     1    1
    76    55    57   ar
    77    30    32   ar
    78    30    31   ar
    79     9     7   am
    80    11    14    1
    81    54    56   ar
    82     7     8    2
    83    75    74    1
    84    57    58   ar
    85    14    16    1
    86    14    15    1
    87    56    58   ar
    88    58    59    1
    89    86    84    1
    90    78    77    1
    91    78    79    2
    92    85    84    1
    93   112   111    1
    94    84    83    2
    95    77    76    1
    96    77    80    1
    97    81    80    1
    98    81    82    1
    99    83    82    1
   100   111   113    1
   101   111   108    1
   102   136   134   ar
   103   136   135   ar
   104   107   108    1
   105   134   132   ar
   106   122   121    1
   107   135   133   ar
   108   108   109    1
   109   132   131   ar
   110   132   130   ar
   111   121   120    1
   112   133   130   ar
   113   109   110    2
   114   131   129   ar
   115   130   128   ar
   116   120   119    1
   117   129   128   ar
   118   128   127    1
   119   119   118    1
   120   118   115    1
   121   127   124    1
   122   114   115    1
   123   123   124    1
   124   123   116   am
   125   115   116    1
   126   124   125    1
   127   116   117    2
   128   125   126    2
