@<TRIPOS>MOLECULE
tmp/1hsbA00.pdb
 157 154 0 0 0
SMALL
GASTEIGER

@<TRIPOS>ATOM
      1  N         52.3180   39.0070   99.6710 N.3     5  MET5       -0.1245
      2  CA        53.3490   38.0980   99.1660 C.3     5  MET5        0.1570
      3  C         52.6230   36.7900   98.8480 C.2     5  MET5        0.2261
      4  O         51.7660   36.3600   99.6220 O.2     5  MET5       -0.2867
      5  CB        54.4570   37.8170  100.1980 C.3     5  MET5        0.0387
      6  CG        55.5100   36.9260   99.6190 C.3     5  MET5        0.0595
      7  SD        56.9650   36.8420  100.6690 S.3     5  MET5       -0.1393
      8  CE        56.3630   36.0170  102.1100 C.3     5  MET5        0.0692
      9  N         52.9010   32.6770   96.8460 N.3     7  TYR7       -0.1241
     10  CA        53.6740   31.6450   96.1780 C.3     7  TYR7        0.1605
     11  C         52.6640   30.7660   95.4950 C.2     7  TYR7        0.2264
     12  O         51.5640   30.5120   96.0390 O.2     7  TYR7       -0.2867
     13  CB        54.5030   30.8050   97.1650 C.3     7  TYR7        0.0534
     14  CG        55.7650   31.5430   97.6300 C.ar    7  TYR7       -0.0201
     15  CD1       55.7100   32.3350   98.7830 C.ar    7  TYR7       -0.0009
     16  CD2       56.9720   31.3800   96.9660 C.ar    7  TYR7       -0.0009
     17  CE1       56.8200   33.0160   99.2200 C.ar    7  TYR7        0.0417
     18  CE2       58.1120   32.0810   97.4010 C.ar    7  TYR7        0.0417
     19  CZ        58.0340   32.8490   98.5590 C.ar    7  TYR7        0.1957
     20  OH        59.1510   33.4810   99.0650 O.3     7  TYR7       -0.2866
     21  N         52.4030   27.1470   93.2910 N.3     9  TYR9       -0.1241
     22  CA        53.0360   25.8680   93.0520 C.3     9  TYR9        0.1605
     23  C         52.1410   25.0960   92.1180 C.2     9  TYR9        0.2264
     24  O         50.9140   25.2010   92.1840 O.2     9  TYR9       -0.2867
     25  CB        53.1730   25.0060   94.3230 C.3     9  TYR9        0.0534
     26  CG        54.0580   25.5160   95.4320 C.ar    9  TYR9       -0.0201
     27  CD1       54.8400   26.6500   95.2830 C.ar    9  TYR9       -0.0009
     28  CD2       54.0360   24.8360   96.6290 C.ar    9  TYR9       -0.0009
     29  CE1       55.6240   27.0910   96.3250 C.ar    9  TYR9        0.0417
     30  CE2       54.8180   25.2710   97.6790 C.ar    9  TYR9        0.0417
     31  CZ        55.5990   26.3930   97.5220 C.ar    9  TYR9        0.1957
     32  OH        56.4510   26.7690   98.5300 O.3     9  TYR9       -0.2866
     33  N         66.2130   27.2750   93.8500 N.3    45  MET45      -0.1245
     34  CA        65.3600   28.4440   93.8200 C.3    45  MET45       0.1570
     35  C         66.2650   29.5280   93.1750 C.2    45  MET45       0.2261
     36  O         67.4410   29.6580   93.5520 O.2    45  MET45      -0.2867
     37  CB        64.9960   28.7990   95.2430 C.3    45  MET45       0.0387
     38  CG        63.9620   29.9060   95.3670 C.3    45  MET45       0.0595
     39  SD        62.2970   29.3960   94.8150 S.3    45  MET45      -0.1393
     40  CE        61.5350   29.4460   96.4140 C.3    45  MET45       0.0692
     41  N         69.5980   31.6470  102.7040 N.3    59  TYR59      -0.1241
     42  CA        68.2910   32.0090  102.2160 C.3    59  TYR59       0.1605
     43  C         68.0430   31.0510  101.0510 C.2    59  TYR59       0.2264
     44  O         67.0670   30.2900  101.0590 O.2    59  TYR59      -0.2867
     45  CB        68.2600   33.4730  101.7190 C.3    59  TYR59       0.0534
     46  CG        66.9240   33.8560  101.0840 C.ar   59  TYR59      -0.0201
     47  CD1       66.7110   33.6620   99.7200 C.ar   59  TYR59      -0.0009
     48  CD2       65.9080   34.4250  101.8330 C.ar   59  TYR59      -0.0009
     49  CE1       65.4690   33.9270   99.1430 C.ar   59  TYR59       0.0417
     50  CE2       64.6710   34.6950  101.2630 C.ar   59  TYR59       0.0417
     51  CZ        64.4930   34.4770   99.9130 C.ar   59  TYR59       0.1957
     52  OH        63.2730   34.6790   99.3490 O.3    59  TYR59      -0.2866
     53  N         67.7590   27.1800  102.1740 N.3    62  ARG62      -0.1231
     54  CA        66.5120   26.9620  102.8640 C.3    62  ARG62       0.1694
     55  C         65.3300   27.0300  101.8890 C.2    62  ARG62       0.2592
     56  O         64.4810   26.1320  101.9200 O.2    62  ARG62      -0.2718
     57  CB        66.4310   28.0160  103.9000 C.3    62  ARG62       0.0321
     58  CG        65.2340   27.8870  104.7920 C.3    62  ARG62       0.0489
     59  CD        65.3840   28.9230  105.9130 C.3    62  ARG62       0.2205
     60  NE        65.1210   30.2920  105.5080 N.pl3  62  ARG62      -0.0865
     61  CZ        66.1080   31.1980  105.4630 C.cat  62  ARG62       0.5346
     62  NH1       67.3530   30.8470  105.7820 N.pl3  62  ARG62       0.1354
     63  NH2       65.8470   32.4650  105.1080 N.pl3  62  ARG62       0.1354
     64  N         65.2760   28.0470  101.0060 N.am   63  ASN63      -0.1974
     65  CA        64.1900   28.1360  100.0340 C.3    63  ASN63       0.1688
     66  C         64.2400   26.9940   99.0130 C.2    63  ASN63       0.2292
     67  O         63.2090   26.3960   98.6870 O.2    63  ASN63      -0.2864
     68  CB        64.2490   29.5210   99.3600 C.3    63  ASN63       0.1181
     69  CG        63.6330   30.5480  100.3040 C.2    63  ASN63       0.2629
     70  OD1       62.4200   30.7880  100.3220 O.2    63  ASN63      -0.2716
     71  ND2       64.3830   31.1770  101.2100 N.am   63  ASN63      -0.0877
     72  N         63.0590   23.8740  100.7970 N.3    66  ASN66      -0.1225
     73  CA        61.6420   23.9040  101.1120 C.3    66  ASN66       0.1785
     74  C         60.7690   23.5600   99.9530 C.2    66  ASN66       0.2597
     75  O         59.8800   22.7140  100.0460 O.2    66  ASN66      -0.2718
     76  CB        61.1980   25.2700  101.6210 C.3    66  ASN66       0.1169
     77  CG        61.6600   25.5030  103.0460 C.2    66  ASN66       0.2627
     78  OD1       61.9410   24.5600  103.7750 O.2    66  ASN66      -0.2716
     79  ND2       61.8250   26.7180  103.5640 N.am   66  ASN66      -0.0877
     80  N         61.1340   24.1500   98.8290 N.am   67  VAL67      -0.1980
     81  CA        60.2740   23.9970   97.6380 C.3    67  VAL67       0.1595
     82  C         60.5200   22.6270   96.9990 C.2    67  VAL67       0.2287
     83  O         59.5730   21.8660   96.7520 O.2    67  VAL67      -0.2864
     84  CB        60.5580   25.1060   96.5950 C.3    67  VAL67       0.0276
     85  CG1       60.2450   26.5250   97.1200 C.3    67  VAL67       0.0022
     86  CG2       62.0150   25.1230   96.1250 C.3    67  VAL67       0.0022
     87  N         49.4820   30.2570   98.3090 N.3    99  TYR99      -0.1241
     88  CA        49.3870   30.7130   99.6710 C.3    99  TYR99       0.1605
     89  C         50.0400   32.0680   99.8130 C.2    99  TYR99       0.2264
     90  O         50.8660   32.4370   98.9730 O.2    99  TYR99      -0.2867
     91  CB        50.0450   29.6810  100.5800 C.3    99  TYR99       0.0534
     92  CG        51.5400   29.4470  100.4600 C.ar   99  TYR99      -0.0201
     93  CD1       52.4360   30.3500  101.0580 C.ar   99  TYR99      -0.0009
     94  CD2       52.0260   28.3830   99.7370 C.ar   99  TYR99      -0.0009
     95  CE1       53.8070   30.1530  100.9740 C.ar   99  TYR99       0.0417
     96  CE2       53.3940   28.1910   99.6780 C.ar   99  TYR99       0.0417
     97  CZ        54.2650   29.0780  100.2650 C.ar   99  TYR99       0.1957
     98  OH        55.6280   28.8620  100.2700 O.3    99  TYR99      -0.2866
     99  N         50.3530   26.4740  109.5170 N.3   156  TRP156     -0.1241
    100  CA        50.0850   27.4740  108.4870 C.3   156  TRP156      0.1605
    101  C         49.8240   28.8220  109.1050 C.2   156  TRP156      0.2264
    102  O         50.4280   29.7870  108.6400 O.2   156  TRP156     -0.2867
    103  CB        48.8610   27.0990  107.6090 C.3   156  TRP156      0.0550
    104  CG        49.3250   26.1780  106.5030 C.ar  156  TRP156      0.0003
    105  CD1       49.0910   24.8450  106.5820 C.ar  156  TRP156      0.0946
    106  CD2       50.0820   26.5480  105.3920 C.ar  156  TRP156      0.0152
    107  NE1       49.7160   24.3490  105.5280 N.ar  156  TRP156     -0.2442
    108  CE2       50.3140   25.3150  104.7930 C.ar  156  TRP156      0.0810
    109  CE3       50.5810   27.7160  104.8310 C.ar  156  TRP156      0.0012
    110  CZ2       51.0550   25.2400  103.6250 C.ar  156  TRP156      0.0191
    111  CZ3       51.3170   27.6340  103.6640 C.ar  156  TRP156      0.0001
    112  CH2       51.5550   26.4060  103.0640 C.ar  156  TRP156      0.0015
    113  N         53.0660   30.4870  110.2850 N.3   159  TYR159     -0.1241
    114  CA        53.8080   31.0160  109.1370 C.3   159  TYR159      0.1605
    115  C         53.1720   32.2720  108.5200 C.2   159  TYR159      0.2264
    116  O         53.8840   33.2340  108.2570 O.2   159  TYR159     -0.2867
    117  CB        53.9310   29.9240  108.0540 C.3   159  TYR159      0.0534
    118  CG        54.4710   30.4560  106.7320 C.ar  159  TYR159     -0.0201
    119  CD1       55.8210   30.6880  106.5570 C.ar  159  TYR159     -0.0009
    120  CD2       53.5930   30.7260  105.7260 C.ar  159  TYR159     -0.0009
    121  CE1       56.2900   31.2690  105.3740 C.ar  159  TYR159      0.0417
    122  CE2       54.0230   31.3010  104.5530 C.ar  159  TYR159      0.0417
    123  CZ        55.3640   31.5520  104.3650 C.ar  159  TYR159      0.1957
    124  OH        55.7400   32.1090  103.1470 O.3   159  TYR159     -0.2866
    125  N         56.3460   34.5940  109.7920 N.3   163  THR163     -0.1218
    126  CA        57.3080   34.5340  108.7080 C.3   163  THR163      0.1862
    127  C         56.9360   35.2190  107.4080 C.2   163  THR163      0.2287
    128  O         57.7480   35.9300  106.7930 O.2   163  THR163     -0.2866
    129  CB        57.6340   33.1380  108.2610 C.3   163  THR163      0.1770
    130  OG1       57.7470   32.3930  109.4440 O.3   163  THR163     -0.2211
    131  CG2       58.8630   33.0800  107.3620 C.3   163  THR163      0.0375
    132  N         59.0320   38.6270  106.2020 N.3   167  TRP167     -0.1241
    133  CA        59.8080   38.6880  104.9920 C.3   167  TRP167      0.1605
    134  C         59.1780   39.6100  103.9530 C.2   167  TRP167      0.2264
    135  O         59.8860   40.2570  103.1690 O.2   167  TRP167     -0.2867
    136  CB        59.9850   37.2550  104.5090 C.3   167  TRP167      0.0550
    137  CG        61.1110   36.5820  105.2990 C.ar  167  TRP167      0.0003
    138  CD1       60.8490   35.9100  106.4680 C.ar  167  TRP167      0.0946
    139  CD2       62.4540   36.5430  104.9860 C.ar  167  TRP167      0.0152
    140  NE1       62.0070   35.4680  106.9090 N.ar  167  TRP167     -0.2442
    141  CE2       62.9900   35.8310  106.0720 C.ar  167  TRP167      0.0810
    142  CE3       63.2810   37.0450  103.9980 C.ar  167  TRP167      0.0012
    143  CZ2       64.3460   35.5450  106.1520 C.ar  167  TRP167      0.0191
    144  CZ3       64.6370   36.7780  104.0620 C.ar  167  TRP167      0.0001
    145  CH2       65.1660   36.0560  105.1430 C.ar  167  TRP167      0.0015
    146  N         61.3200   42.5390  102.1260 N.3   171  TYR171     -0.1241
    147  CA        61.2600   42.6780  100.6800 C.3   171  TYR171      0.1605
    148  C         60.7680   44.0640  100.3190 C.2   171  TYR171      0.2264
    149  O         61.3760   44.7040   99.4640 O.2   171  TYR171     -0.2867
    150  CB        60.2870   41.6550  100.0580 C.3   171  TYR171      0.0534
    151  CG        60.7270   40.2150  100.2330 C.ar  171  TYR171     -0.0201
    152  CD1       62.0590   39.8950  100.4270 C.ar  171  TYR171     -0.0009
    153  CD2       59.7650   39.2460  100.1980 C.ar  171  TYR171     -0.0009
    154  CE1       62.4100   38.5970  100.6250 C.ar  171  TYR171      0.0417
    155  CE2       60.1060   37.9410  100.3950 C.ar  171  TYR171      0.0417
    156  CZ        61.4290   37.6330  100.6080 C.ar  171  TYR171      0.1957
    157  OH        61.7200   36.2980  100.8910 O.3   171  TYR171     -0.2866
@<TRIPOS>BOND
     1    23    24    2
     2    23    22    1
     3    22    21    1
     4    22    25    1
     5    35    36    2
     6    35    34    1
     7    34    33    1
     8    34    37    1
     9    25    26    1
    10    39    38    1
    11    39    40    1
    12    37    38    1
    13    27    26   ar
    14    27    29   ar
    15    26    28   ar
    16    11    12    2
    17    11    10    1
    18    86    84    1
    19    10     9    1
    20    10    13    1
    21    29    31   ar
    22    84    85    1
    23    84    81    1
    24    28    30   ar
    25    83    82    2
    26    16    18   ar
    27    16    14   ar
    28    82    81    1
    29    13    14    1
    30    18    19   ar
    31    31    30   ar
    32    31    32    1
    33    14    15   ar
    34    81    80    1
    35    87    88    1
    36    19    20    1
    37    19    17   ar
    38    67    66    2
    39    15    17   ar
    40    80    74   am
    41     3     2    1
    42     3     4    2
    43    90    89    2
    44    66    65    1
    45    49    47   ar
    46    49    51   ar
    47     2     1    1
    48     2     5    1
    49    52    51    1
    50    68    65    1
    51    68    69    1
    52   149   148    2
    53     6     5    1
    54     6     7    1
    55    88    89    1
    56    88    91    1
    57    96    94   ar
    58    96    97   ar
    59    47    46   ar
    60    94    92   ar
    61    51    50   ar
    62    74    75    2
    63    74    73    1
    64    65    64    1
    65   150   151    1
    66   150   147    1
    67   153   151   ar
    68   153   155   ar
    69   151   152   ar
    70    97    98    1
    71    97    95   ar
    72    69    70    2
    73    69    71   am
    74   148   147    1
    75   155   156   ar
    76   152   154   ar
    77    92    91    1
    78    92    93   ar
    79   156   154   ar
    80   156   157    1
    81     7     8    1
    82   147   146    1
    83    72    73    1
    84    95    93   ar
    85    64    55   am
    86    43    44    2
    87    43    42    1
    88    46    45    1
    89    46    48   ar
    90    73    76    1
    91    50    48   ar
    92    76    77    1
    93    45    42    1
    94    55    56    2
    95    55    54    1
    96    53    54    1
    97    42    41    1
    98    54    57    1
    99    77    79   am
   100    77    78    2
   101   112   110   ar
   102   112   111   ar
   103   124   123    1
   104   135   134    2
   105   110   108   ar
   106   111   109   ar
   107    57    58    1
   108   134   133    1
   109   142   144   ar
   110   142   139   ar
   111   144   145   ar
   112   123   122   ar
   113   123   121   ar
   114   136   133    1
   115   136   137    1
   116   122   120   ar
   117    58    59    1
   118   108   106   ar
   119   108   107   ar
   120   109   106   ar
   121   139   137   ar
   122   139   141   ar
   123   133   132    1
   124    63    61    1
   125   145   143   ar
   126   137   138   ar
   127   121   119   ar
   128   106   104   ar
   129    61    60    2
   130    61    62    1
   131    60    59    1
   132   107   105   ar
   133   120   118   ar
   134   141   143   ar
   135   141   140   ar
   136   138   140   ar
   137   104   105   ar
   138   104   103    1
   139   119   118   ar
   140   118   117    1
   141   128   127    2
   142   131   129    1
   143   127   126    1
   144   103   100    1
   145   117   114    1
   146   116   115    2
   147   129   126    1
   148   129   130    1
   149   100   101    1
   150   100    99    1
   151   115   114    1
   152   102   101    2
   153   126   125    1
   154   114   113    1
