@<TRIPOS>MOLECULE
tmp/1hshA00.pdb
 121 113 0 0 0
SMALL
GASTEIGER

@<TRIPOS>ATOM
      1  N         18.1220   12.4590    3.5550 N.3     8  ARG8       -0.1245
      2  CA        16.8020   11.8130    3.4430 C.3     8  ARG8        0.1563
      3  C         15.9220   12.4530    2.3460 C.2     8  ARG8        0.2260
      4  O         15.7380   13.6700    2.2950 O.2     8  ARG8       -0.2867
      5  CB        16.0430   11.8620    4.7790 C.3     8  ARG8        0.0307
      6  CG        16.6310   11.0440    5.9060 C.3     8  ARG8        0.0489
      7  CD        15.7020   11.0880    7.1230 C.3     8  ARG8        0.2205
      8  NE        16.1310   10.1830    8.1910 N.pl3   8  ARG8       -0.0865
      9  CZ        15.7660   10.2790    9.4730 C.cat   8  ARG8        0.5346
     10  NH1       14.9830   11.2630    9.8900 N.pl3   8  ARG8        0.1354
     11  NH2       16.2200    9.4000   10.3560 N.pl3   8  ARG8        0.1354
     12  N          8.9800   11.2180    3.8380 N.3    23  LEU23      -0.1245
     13  CA        10.0760   10.4080    3.2880 C.3    23  LEU23       0.1561
     14  C          9.6610    9.5630    2.0530 C.2    23  LEU23       0.2260
     15  O          8.6820    8.7840    2.0870 O.2    23  LEU23      -0.2867
     16  CB        10.6310    9.4910    4.3920 C.3    23  LEU23       0.0270
     17  CG        11.8730    8.6600    4.0540 C.3    23  LEU23       0.0019
     18  CD1       13.0460    9.5970    3.7890 C.3    23  LEU23       0.0001
     19  CD2       12.1800    7.6910    5.1790 C.3    23  LEU23       0.0001
     20  N         10.0900    6.5200   -0.0030 N.3    25  ASP25      -0.1239
     21  CA        10.6120    5.2710    0.5510 C.3    25  ASP25       0.1674
     22  C         10.3920    4.0470   -0.3540 C.2    25  ASP25       0.2266
     23  O          9.3440    3.4020   -0.3030 O.2    25  ASP25      -0.2867
     24  CB         9.9610    5.0500    1.9230 C.3    25  ASP25       0.1410
     25  CG        10.5960    3.9070    2.7090 C.2    25  ASP25       0.3668
     26  OD1       11.2440    3.0500    2.0880 O.co2  25  ASP25      -0.2456
     27  OD2       10.3780    3.8210    3.9360 O.co2  25  ASP25      -0.2456
     28  N         11.4910    1.1590   -0.0450 N.3    27  GLY27      -0.1210
     29  CA        11.3750   -0.0760    0.7110 C.3    27  GLY27       0.1956
     30  C         10.0280   -0.2470    1.3890 C.2    27  GLY27       0.2612
     31  O          9.7440   -1.2970    1.9460 O.2    27  GLY27      -0.2717
     32  N          9.1870    0.7810    1.3660 N.am   28  ALA28      -0.1965
     33  CA         7.8310    0.6460    1.8970 C.3    28  ALA28       0.1728
     34  C          6.8910    0.2850    0.7670 C.2    28  ALA28       0.2616
     35  O          6.8740    0.9590   -0.2680 O.2    28  ALA28      -0.2715
     36  CB         7.3840    1.9300    2.5380 C.3    28  ALA28       0.0334
     37  N          6.1240   -0.7880    0.9560 N.am   29  ASP29      -0.1957
     38  CA         5.0280   -1.1340    0.0420 C.3    29  ASP29       0.1840
     39  C          3.9590   -0.0260    0.0370 C.2    29  ASP29       0.2622
     40  O          3.5100    0.4520   -1.0180 O.2    29  ASP29      -0.2715
     41  CB         4.3810   -2.4430    0.4960 C.3    29  ASP29       0.1450
     42  CG         5.3400   -3.6160    0.4630 C.2    29  ASP29       0.3671
     43  OD1        6.1230   -3.7280   -0.5000 O.co2  29  ASP29      -0.2456
     44  OD2        5.2650   -4.4700    1.3730 O.co2  29  ASP29      -0.2456
     45  N          3.5800    0.3750    1.2410 N.am   30  ASP30      -0.1971
     46  CA         2.4310    1.2100    1.4590 C.3    30  ASP30       0.1709
     47  C          2.9030    2.5540    2.0330 C.2    30  ASP30       0.2293
     48  O          4.1080    2.7660    2.1780 O.2    30  ASP30      -0.2864
     49  CB         1.4920    0.4880    2.4220 C.3    30  ASP30       0.1436
     50  CG         1.1130   -0.9060    1.9290 C.2    30  ASP30       0.3671
     51  OD1        0.6310   -1.0270    0.7840 O.co2  30  ASP30      -0.2456
     52  OD2        1.2950   -1.8880    2.6810 O.co2  30  ASP30      -0.2456
     53  N          2.3440    5.5240    5.1690 N.3    32  ILE32      -0.1245
     54  CA         1.8250    5.7780    6.5110 C.3    32  ILE32       0.1561
     55  C          2.1670    7.1890    6.9490 C.2    32  ILE32       0.2260
     56  O          3.3300    7.5430    7.0020 O.2    32  ILE32      -0.2867
     57  CB         2.3830    4.7830    7.5810 C.3    32  ILE32       0.0252
     58  CG1        2.5870    3.3850    6.9790 C.3    32  ILE32       0.0019
     59  CG2        1.3920    4.6750    8.7570 C.3    32  ILE32       0.0019
     60  CD1        2.7480    2.2420    8.0140 C.3    32  ILE32       0.0001
     61  N          0.5170   -3.5260    9.9160 N.3    47  VAL47      -0.1231
     62  CA         1.6810   -3.2960    9.0440 C.3    47  VAL47       0.1692
     63  C          2.9270   -3.8370    9.7250 C.2    47  VAL47       0.2593
     64  O          3.1350   -3.6060   10.9110 O.2    47  VAL47      -0.2718
     65  CB         1.8670   -1.7700    8.7250 C.3    47  VAL47       0.0266
     66  CG1        3.1740   -1.5070    8.0100 C.3    47  VAL47       0.0020
     67  CG2        0.7280   -1.2730    7.8670 C.3    47  VAL47       0.0020
     68  N          3.7220   -4.5940    8.9810 N.am   48  GLY48      -0.1942
     69  CA         4.9590   -5.1290    9.5140 C.3    48  GLY48       0.2014
     70  C          6.1880   -4.3590    9.0520 C.2    48  GLY48       0.2639
     71  O          6.4080   -4.1900    7.8480 O.2    48  GLY48      -0.2714
     72  N          6.9540   -3.8390   10.0090 N.am   49  GLY49      -0.1939
     73  CA         8.2390   -3.2390    9.7020 C.3    49  GLY49       0.2014
     74  C          9.3560   -3.9740   10.4160 C.2    49  GLY49       0.2638
     75  O          9.1810   -5.1260   10.8060 O.2    49  GLY49      -0.2714
     76  N         10.5180   -3.3370   10.5480 N.am   50  ILE50      -0.1977
     77  CA        11.5970   -3.8780   11.3750 C.3    50  ILE50       0.1596
     78  C         11.2360   -3.7260   12.8580 C.2    50  ILE50       0.2287
     79  O         10.6990   -2.6970   13.2910 O.2    50  ILE50      -0.2864
     80  CB        12.9700   -3.1780   11.0650 C.3    50  ILE50       0.0276
     81  CG1       13.3680   -3.4030    9.6080 C.3    50  ILE50       0.0022
     82  CG2       14.0640   -3.7160   11.9690 C.3    50  ILE50       0.0022
     83  CD1       13.6540   -4.8250    9.2750 C.3    50  ILE50       0.0001
     84  N         -2.3920    5.1900    4.7610 N.3    76  MET76      -0.1245
     85  CA        -2.7560    4.7700    6.1100 C.3    76  MET76       0.1570
     86  C         -2.4150    5.8350    7.1340 C.2    76  MET76       0.2261
     87  O         -1.5510    6.6870    6.9100 O.2    76  MET76      -0.2867
     88  CB        -2.0580    3.4610    6.4820 C.3    76  MET76       0.0387
     89  CG        -2.4800    2.2750    5.6390 C.3    76  MET76       0.0595
     90  SD        -1.4890    0.8150    5.9380 S.3    76  MET76      -0.1393
     91  CE        -0.0650    1.2310    5.0700 C.3    76  MET76       0.0692
     92  N          3.3800    6.3760   13.3460 N.3    80  THR80      -0.1204
     93  CA         4.6790    6.1990   12.7150 C.3    80  THR80       0.1979
     94  C          5.6210    7.3240   13.1820 C.2    80  THR80       0.2460
     95  O          5.1950    8.4750   13.3370 O.2    80  THR80      -0.2732
     96  CB         4.5060    6.1960   11.1690 C.3    80  THR80       0.1783
     97  OG1        5.7710    6.0230   10.5230 O.3    80  THR80      -0.2211
     98  CG2        3.8690    7.4910   10.7000 C.3    80  THR80       0.0376
     99  N          6.8810    6.9830   13.5330 N.am   81  PRO81      -0.2717
    100  CA         7.9480    7.9500   13.8370 C.3    81  PRO81       0.1535
    101  C          8.2890    8.9550   12.7160 C.2    81  PRO81       0.2598
    102  O          8.7780   10.0650   12.9810 O.2    81  PRO81      -0.2715
    103  CB         9.1610    7.0620   14.1930 C.3    81  PRO81       0.0310
    104  CG         8.8020    5.6900   13.7270 C.3    81  PRO81       0.0237
    105  CD         7.3040    5.6080   13.8680 C.3    81  PRO81       0.0939
    106  N          8.0650    8.5480   11.4690 N.am   82  ILE82      -0.1978
    107  CA         8.2800    9.4210   10.3260 C.3    82  ILE82       0.1596
    108  C          7.2070    9.1070    9.2830 C.2    82  ILE82       0.2287
    109  O          6.7840    7.9600    9.1500 O.2    82  ILE82      -0.2864
    110  CB         9.6990    9.2070    9.7350 C.3    82  ILE82       0.0276
    111  CG1       10.1190   10.4170    8.8970 C.3    82  ILE82       0.0022
    112  CG2        9.7560    7.9210    8.9220 C.3    82  ILE82       0.0022
    113  CD1       11.6400   10.5480    8.7400 C.3    82  ILE82       0.0001
    114  N          5.7910    8.5070    5.5690 N.3    84  ILE84      -0.1245
    115  CA         6.3800    7.6520    4.5400 C.3    84  ILE84       0.1561
    116  C          5.4730    7.7010    3.3370 C.2    84  ILE84       0.2260
    117  O          4.2760    7.4480    3.4500 O.2    84  ILE84      -0.2867
    118  CB         6.4450    6.1630    4.9850 C.3    84  ILE84       0.0252
    119  CG1        7.2890    6.0070    6.2530 C.3    84  ILE84       0.0019
    120  CG2        7.0020    5.3000    3.8530 C.3    84  ILE84       0.0019
    121  CD1        7.2710    4.6070    6.7980 C.3    84  ILE84       0.0001
@<TRIPOS>BOND
     1    40    39    2
     2    43    42   ar
     3    22    23    2
     4    22    21    1
     5    35    34    2
     6    28    29    1
     7    20    21    1
     8    39    38    1
     9    39    45   am
    10    38    41    1
    11    38    37    1
    12    42    41    1
    13    42    44   ar
    14    21    24    1
    15    29    30    1
    16    34    37   am
    17    34    33    1
    18    51    50   ar
    19    45    46    1
    20    32    30   am
    21    32    33    1
    22    30    31    2
    23    46    47    1
    24    46    49    1
    25    33    36    1
    26    24    25    1
    27    50    49    1
    28    50    52   ar
    29    47    48    2
    30    14    15    2
    31    14    13    1
    32    26    25   ar
    33     4     3    2
    34     3     2    1
    35    25    27   ar
    36    13    12    1
    37    13    16    1
    38   116   117    2
    39   116   115    1
    40     2     1    1
    41     2     5    1
    42    18    17    1
    43   120   118    1
    44    17    16    1
    45    17    19    1
    46   115   118    1
    47   115   114    1
    48    84    85    1
    49     5     6    1
    50   118   119    1
    51    91    90    1
    52    53    54    1
    53    89    90    1
    54    89    88    1
    55     6     7    1
    56    85    88    1
    57    85    86    1
    58   119   121    1
    59    54    55    1
    60    54    57    1
    61    87    86    2
    62    55    56    2
    63    58    57    1
    64    58    60    1
    65     7     8    1
    66    57    59    1
    67    71    70    2
    68    67    65    1
    69    66    65    1
    70     8     9    2
    71    65    62    1
    72   113   111    1
    73   111   110    1
    74   112   110    1
    75    68    69    1
    76    68    63   am
    77    62    63    1
    78    62    61    1
    79    70    69    1
    80    70    72   am
    81   109   108    2
    82    83    81    1
    83   108   107    1
    84     9    10    1
    85     9    11    1
    86    81    80    1
    87    73    72    1
    88    73    74    1
    89    63    64    2
    90   110   107    1
    91   107   106    1
    92    74    76   am
    93    74    75    2
    94    97    96    1
    95    76    77    1
    96    98    96    1
    97    80    77    1
    98    80    82    1
    99    96    93    1
   100    77    78    1
   101   106   101   am
   102    93    94    1
   103    93    92    1
   104   101   102    2
   105   101   100    1
   106    78    79    2
   107    94    95    2
   108    94    99   am
   109    99   100    1
   110    99   105    1
   111   104   105    1
   112   104   103    1
   113   100   103    1
