@<TRIPOS>MOLECULE
tmp/1hslA00.pdb
 138 128 0 0 0
SMALL
GASTEIGER

@<TRIPOS>ATOM
      1  N        -14.2480  -31.1200    4.1440 N.3    11  ASP11      -0.1239
      2  CA       -13.3130  -30.7060    3.1410 C.3    11  ASP11       0.1674
      3  C        -13.4700  -29.2040    3.0180 C.2    11  ASP11       0.2266
      4  O        -14.4830  -28.7940    2.4720 O.2    11  ASP11      -0.2867
      5  CB       -13.6440  -31.3820    1.8230 C.3    11  ASP11       0.1410
      6  CG       -12.5980  -31.1770    0.7310 C.2    11  ASP11       0.3668
      7  OD1      -12.5900  -32.0200   -0.1480 O.co2  11  ASP11      -0.2456
      8  OD2      -11.7850  -30.2410    0.7270 O.co2  11  ASP11      -0.2456
      9  N        -14.9550  -25.7420   -0.5120 N.3    14  TYR14      -0.1241
     10  CA       -16.1870  -25.7750   -1.1900 C.3    14  TYR14       0.1605
     11  C        -17.0340  -24.5940   -0.8080 C.2    14  TYR14       0.2264
     12  O        -18.1420  -24.7040   -0.2950 O.2    14  TYR14      -0.2867
     13  CB       -16.8350  -27.0750   -0.8340 C.3    14  TYR14       0.0534
     14  CG       -17.8530  -27.5160   -1.8850 C.ar   14  TYR14      -0.0201
     15  CD1      -17.4300  -27.7230   -3.2050 C.ar   14  TYR14      -0.0009
     16  CD2      -19.1580  -27.7440   -1.5130 C.ar   14  TYR14      -0.0009
     17  CE1      -18.3210  -28.1760   -4.1530 C.ar   14  TYR14       0.0417
     18  CE2      -20.0330  -28.2020   -2.4400 C.ar   14  TYR14       0.0417
     19  CZ       -19.6050  -28.4240   -3.7560 C.ar   14  TYR14       0.1957
     20  OH       -20.4740  -29.0060   -4.6760 O.3    14  TYR14      -0.2866
     21  N        -18.2870  -24.6870    3.1870 N.3    18  GLU18      -0.1245
     22  CA       -17.1890  -24.7060    4.1430 C.3    18  GLU18       0.1567
     23  C        -15.9760  -24.2490    3.4150 C.2    18  GLU18       0.2260
     24  O        -15.6910  -24.8140    2.3750 O.2    18  GLU18      -0.2867
     25  CB       -16.7630  -26.0740    4.6830 C.3    18  GLU18       0.0388
     26  CG       -16.7040  -27.2700    3.6990 C.3    18  GLU18       0.1160
     27  CD       -18.0840  -27.8310    3.3300 C.2    18  GLU18       0.3649
     28  OE1      -18.9550  -27.9010    4.1830 O.co2  18  GLU18      -0.2457
     29  OE2      -18.3210  -28.2130    2.1880 O.co2  18  GLU18      -0.2457
     30  N        -12.7790  -34.6700    0.8220 N.3    52  LEU52      -0.1245
     31  CA       -14.0100  -35.4080    0.9220 C.3    52  LEU52       0.1561
     32  C        -13.8330  -36.8850    0.5450 C.2    52  LEU52       0.2260
     33  O        -14.4190  -37.7090    1.2430 O.2    52  LEU52      -0.2867
     34  CB       -15.0460  -34.6960    0.0400 C.3    52  LEU52       0.0270
     35  CG       -16.4300  -35.3030   -0.1210 C.3    52  LEU52       0.0019
     36  CD1      -17.5560  -34.4460    0.4880 C.3    52  LEU52       0.0001
     37  CD2      -16.6230  -35.4660   -1.6100 C.3    52  LEU52       0.0001
     38  N        -20.2310  -31.6900    5.0700 N.3    69  SER69      -0.1202
     39  CA       -19.3240  -31.2690    4.0060 C.3    69  SER69       0.2020
     40  C        -20.1480  -31.1980    2.7010 C.2    69  SER69       0.2619
     41  O        -19.7290  -31.6650    1.6510 O.2    69  SER69      -0.2717
     42  CB       -18.2030  -32.3200    3.9300 C.3    69  SER69       0.2103
     43  OG       -17.0120  -31.9750    3.2030 O.3    69  SER69      -0.2182
     44  N        -21.4040  -30.7060    2.7630 N.am   70  SER70      -0.1937
     45  CA       -22.2610  -30.6690    1.6170 C.3    70  SER70       0.2055
     46  C        -22.3950  -32.0380    0.9430 C.2    70  SER70       0.2643
     47  O        -22.5000  -32.2020   -0.2820 O.2    70  SER70      -0.2714
     48  CB       -21.7140  -29.6070    0.6370 C.3    70  SER70       0.2130
     49  OG       -22.7700  -28.8310    0.1070 O.3    70  SER70      -0.2179
     50  N        -22.3770  -33.0700    1.7870 N.am   71  LEU71      -0.1963
     51  CA       -22.4660  -34.5030    1.3610 C.3    71  LEU71       0.1728
     52  C        -23.8880  -34.7990    0.8970 C.2    71  LEU71       0.2616
     53  O        -24.8510  -34.6290    1.6470 O.2    71  LEU71      -0.2715
     54  CB       -22.1820  -35.4940    2.5180 C.3    71  LEU71       0.0311
     55  CG       -21.8500  -36.9340    2.1820 C.3    71  LEU71       0.0022
     56  CD1      -20.5160  -36.9920    1.5210 C.3    71  LEU71       0.0001
     57  CD2      -21.6930  -37.7600    3.4350 C.3    71  LEU71       0.0001
     58  N        -24.1180  -35.2170   -0.3320 N.am   72  SER72      -0.1950
     59  CA       -25.4960  -35.4680   -0.7930 C.3    72  SER72       0.1924
     60  C        -26.1110  -36.7250   -0.1970 C.2    72  SER72       0.2314
     61  O        -25.5020  -37.7910   -0.1820 O.2    72  SER72      -0.2863
     62  CB       -25.5280  -35.6000   -2.3410 C.3    72  SER72       0.2116
     63  OG       -24.9920  -34.4610   -2.9890 O.3    72  SER72      -0.2180
     64  N        -24.8730  -44.4130   -1.1100 N.3    77  ARG77      -0.1245
     65  CA       -24.2680  -44.0330    0.1900 C.3    77  ARG77       0.1563
     66  C        -25.2170  -44.3830    1.3520 C.2    77  ARG77       0.2260
     67  O        -24.7990  -44.7640    2.4360 O.2    77  ARG77      -0.2867
     68  CB       -23.9860  -42.5190    0.2090 C.3    77  ARG77       0.0307
     69  CG       -22.5330  -42.1590    0.1090 C.3    77  ARG77       0.0489
     70  CD       -22.2480  -41.1230   -0.9760 C.3    77  ARG77       0.2205
     71  NE       -22.8760  -39.8370   -0.8020 N.pl3  77  ARG77      -0.0865
     72  CZ       -22.3370  -38.7110   -1.3330 C.cat  77  ARG77       0.5346
     73  NH1      -23.0140  -37.5990   -1.2110 N.pl3  77  ARG77       0.1354
     74  NH2      -21.1220  -38.5600   -1.8850 N.pl3  77  ARG77       0.1354
     75  N        -14.5990  -33.6260   -8.5980 N.3   117  LEU117     -0.1245
     76  CA       -13.8980  -33.8080   -7.3310 C.3   117  LEU117      0.1561
     77  C        -13.9060  -35.2860   -6.9410 C.2   117  LEU117      0.2260
     78  O        -14.9870  -35.9250   -6.9140 O.2   117  LEU117     -0.2867
     79  CB       -14.5700  -33.0110   -6.2340 C.3   117  LEU117      0.0270
     80  CG       -13.6260  -32.8920   -4.9570 C.3   117  LEU117      0.0019
     81  CD1      -12.3560  -32.1160   -5.2810 C.3   117  LEU117      0.0001
     82  CD2      -14.3520  -32.1750   -3.8900 C.3   117  LEU117      0.0001
     83  N        -16.8360  -37.7920   -5.1570 N.3   120  THR120     -0.1203
     84  CA       -18.1880  -37.2140   -5.2720 C.3   120  THR120      0.1994
     85  C        -19.2290  -37.9310   -6.0750 C.2   120  THR120      0.2619
     86  O        -19.0190  -38.8550   -6.8800 O.2   120  THR120     -0.2717
     87  CB       -18.2350  -35.7990   -5.8610 C.3   120  THR120      0.1784
     88  OG1      -17.6940  -35.7920   -7.1700 O.3   120  THR120     -0.2211
     89  CG2      -17.5230  -34.8950   -4.9630 C.3   120  THR120      0.0376
     90  N        -20.4410  -37.5120   -5.7890 N.am  121  THR121     -0.1938
     91  CA       -21.5880  -38.0070   -6.5520 C.3   121  THR121      0.2028
     92  C        -21.4510  -37.7390   -8.0900 C.2   121  THR121      0.2642
     93  O        -21.5900  -38.6230   -8.9300 O.2   121  THR121     -0.2714
     94  CB       -22.7540  -37.3220   -5.8350 C.3   121  THR121      0.1808
     95  OG1      -23.7830  -38.2200   -6.1350 O.3   121  THR121     -0.2208
     96  CG2      -23.1550  -35.9500   -6.2320 C.3   121  THR121      0.0379
     97  N        -21.0340  -36.5470   -8.5620 N.am  122  GLN122     -0.1976
     98  CA       -20.7690  -36.2280   -9.9910 C.3   122  GLN122      0.1601
     99  C        -19.6370  -37.0910  -10.6070 C.2   122  GLN122      0.2287
    100  O        -19.5210  -37.3080  -11.8180 O.2   122  GLN122     -0.2864
    101  CB       -20.3460  -34.7920  -10.1330 C.3   122  GLN122      0.0394
    102  CG       -21.3310  -33.7480   -9.6430 C.3   122  GLN122      0.0908
    103  CD       -21.2230  -33.4360   -8.1580 C.2   122  GLN122      0.2608
    104  OE1      -22.2050  -33.0530   -7.5420 O.2   122  GLN122     -0.2717
    105  NE2      -20.0690  -33.5670   -7.4940 N.am  122  GLN122     -0.0878
    106  N        -11.7490  -28.6380   -4.7020 N.3   143  GLN143     -0.1245
    107  CA       -12.5840  -27.9310   -5.6320 C.3   143  GLN143      0.1566
    108  C        -11.9700  -26.6790   -6.2090 C.2   143  GLN143      0.2260
    109  O        -12.2340  -26.3190   -7.3410 O.2   143  GLN143     -0.2867
    110  CB       -13.8470  -27.5970   -4.9300 C.3   143  GLN143      0.0367
    111  CG       -14.8750  -26.9370   -5.7900 C.3   143  GLN143      0.0905
    112  CD       -15.3190  -27.8370   -6.9120 C.2   143  GLN143      0.2608
    113  OE1      -15.5960  -29.0300   -6.7920 O.2   143  GLN143     -0.2717
    114  NE2      -15.4070  -27.2680   -8.0880 N.am  143  GLN143     -0.0878
    115  N        -19.9200  -30.0730  -10.4780 N.3   160  GLN160     -0.1231
    116  CA       -20.0450  -30.1150   -9.0050 C.3   160  GLN160      0.1698
    117  C        -21.4280  -29.5870   -8.7530 C.2   160  GLN160      0.2592
    118  O        -22.1850  -29.4950   -9.7330 O.2   160  GLN160     -0.2718
    119  CB       -19.0850  -29.1770   -8.2950 C.3   160  GLN160      0.0381
    120  CG       -19.0960  -27.6680   -8.6440 C.3   160  GLN160      0.0905
    121  CD       -18.4720  -27.4120  -10.0080 C.2   160  GLN160      0.2608
    122  OE1      -19.0390  -26.7890  -10.9020 O.2   160  GLN160     -0.2717
    123  NE2      -17.3170  -27.9200  -10.3570 N.am  160  GLN160     -0.0878
    124  N        -21.7770  -29.2080   -7.5210 N.am  161  ASP161     -0.1974
    125  CA       -23.1250  -28.7360   -7.3030 C.3   161  ASP161      0.1709
    126  C        -23.3270  -27.2840   -7.7400 C.2   161  ASP161      0.2293
    127  O        -22.4720  -26.4030   -7.6440 O.2   161  ASP161     -0.2864
    128  CB       -23.5350  -28.8560   -5.8280 C.3   161  ASP161      0.1436
    129  CG       -23.3840  -30.2410   -5.2250 C.2   161  ASP161      0.3671
    130  OD1      -22.9100  -30.3270   -4.1050 O.co2 161  ASP161     -0.2456
    131  OD2      -23.7160  -31.2310   -5.8420 O.co2 161  ASP161     -0.2456
    132  N        -28.6790  -32.4730    0.9170 N.3   195  THR195     -0.1218
    133  CA       -27.5340  -32.7940    1.7690 C.3   195  THR195      0.1862
    134  C        -27.9150  -33.0720    3.2190 C.2   195  THR195      0.2287
    135  O        -28.9430  -32.6390    3.7480 O.2   195  THR195     -0.2866
    136  CB       -26.4720  -31.6520    1.7460 C.3   195  THR195      0.1770
    137  OG1      -27.0360  -30.4610    2.3140 O.3   195  THR195     -0.2211
    138  CG2      -25.9750  -31.4300    0.3120 C.3   195  THR195      0.0375
@<TRIPOS>BOND
     1   100    99    2
     2   122   121    2
     3    99    98    1
     4   115   116    1
     5   123   121   am
     6   101    98    1
     7   101   102    1
     8   121   120    1
     9    98    97    1
    10   118   117    2
    11   102   103    1
    12   116   117    1
    13   116   119    1
    14    93    92    2
    15   117   124   am
    16   120   119    1
    17    75    76    1
    18    97    92   am
    19   103   104    2
    20   103   105   am
    21    92    91    1
    22   114   112   am
    23   126   127    2
    24   126   125    1
    25   124   125    1
    26   109   108    2
    27    76    77    1
    28    76    79    1
    29   125   128    1
    30    88    87    1
    31    77    78    2
    32   112   113    2
    33   112   111    1
    34    86    85    2
    35    91    94    1
    36    91    90    1
    37    79    80    1
    38    96    94    1
    39   108   107    1
    40    95    94    1
    41    85    90   am
    42    85    84    1
    43    87    84    1
    44    87    89    1
    45   131   129   ar
    46   128   129    1
    47   111   110    1
    48   107   110    1
    49   107   106    1
    50    81    80    1
    51    84    83    1
    52   129   130   ar
    53    80    82    1
    54    20    19    1
    55    17    19   ar
    56    17    15   ar
    57    19    18   ar
    58    15    14   ar
    59    63    62    1
    60    18    16   ar
    61    62    59    1
    62    14    16   ar
    63    14    13    1
    64    74    72    1
    65    37    35    1
    66    72    73    1
    67    72    71    2
    68    10    13    1
    69    10    11    1
    70    10     9    1
    71    64    65    1
    72    70    71    1
    73    70    69    1
    74    11    12    2
    75    59    58    1
    76    59    60    1
    77    58    52   am
    78    47    46    2
    79    60    61    2
    80     7     6   ar
    81    35    34    1
    82    35    36    1
    83    34    31    1
    84    49    48    1
    85    69    68    1
    86    65    68    1
    87    65    66    1
    88   138   136    1
    89    32    31    1
    90    32    33    2
    91    48    45    1
    92     8     6   ar
    93     6     5    1
    94    30    31    1
    95    52    51    1
    96    52    53    2
    97   132   133    1
    98    46    45    1
    99    46    50   am
   100    66    67    2
   101    51    50    1
   102    51    54    1
   103    56    55    1
   104    45    44    1
   105    41    40    2
   106   136   133    1
   107   136   137    1
   108   133   134    1
   109     5     2    1
   110    55    54    1
   111    55    57    1
   112    29    27   ar
   113    24    23    2
   114     4     3    2
   115    40    44   am
   116    40    39    1
   117     3     2    1
   118     2     1    1
   119    21    22    1
   120    43    42    1
   121   134   135    2
   122    27    26    1
   123    27    28   ar
   124    23    22    1
   125    26    25    1
   126    42    39    1
   127    39    38    1
   128    22    25    1
