@<TRIPOS>MOLECULE
tmp/1ht5A00.pdb
 152 145 0 0 0
SMALL
GASTEIGER

@<TRIPOS>ATOM
      1  N         26.1910   14.1600  206.8390 N.3    51  ARG51      -0.1231
      2  CA        25.9030   15.5540  206.5420 C.3    51  ARG51       0.1679
      3  C         24.4310   15.8790  206.7200 C.2    51  ARG51       0.2434
      4  O         23.5720   15.1760  206.1970 O.2    51  ARG51      -0.2733
      5  CB        26.2950   15.9030  205.1060 C.3    51  ARG51       0.0321
      6  CG        25.8020   17.2790  204.6970 C.3    51  ARG51       0.0489
      7  CD        25.7400   17.4770  203.1990 C.3    51  ARG51       0.2205
      8  NE        27.0440   17.7530  202.6100 N.pl3  51  ARG51      -0.0865
      9  CZ        27.2070   18.3290  201.4220 C.cat  51  ARG51       0.5346
     10  NH1       26.1400   18.6850  200.7110 N.pl3  51  ARG51       0.1354
     11  NH2       28.4310   18.5550  200.9490 N.pl3  51  ARG51       0.1354
     12  N         24.1220   16.9510  207.4710 N.am   52  PRO52      -0.2729
     13  CA        22.7440   17.3870  207.7170 C.3    52  PRO52       0.1401
     14  C         22.2620   18.1880  206.5030 C.2    52  PRO52       0.2269
     15  O         23.0790   18.6830  205.7260 O.2    52  PRO52      -0.2865
     16  CB        22.8860   18.2460  208.9580 C.3    52  PRO52       0.0296
     17  CG        24.2100   18.8940  208.7330 C.3    52  PRO52       0.0237
     18  CD        25.0670   17.7380  208.2830 C.3    52  PRO52       0.0939
     19  N         21.0780   21.0840  204.0170 N.3    54  PRO54      -0.2116
     20  CA        21.4600   22.4930  203.9090 C.3    54  PRO54       0.1372
     21  C         20.4090   23.3590  204.5810 C.2    54  PRO54       0.2244
     22  O         20.6740   24.4920  204.9780 O.2    54  PRO54      -0.2868
     23  CB        21.5110   22.7170  202.4040 C.3    54  PRO54       0.0268
     24  CG        21.9150   21.3640  201.8770 C.3    54  PRO54       0.0207
     25  CD        21.0650   20.4350  202.6930 C.3    54  PRO54       0.0892
     26  N         21.0190   23.0420  208.6600 N.3    57  ILE57      -0.1245
     27  CA        22.1190   23.8550  209.1470 C.3    57  ILE57       0.1561
     28  C         21.6510   25.3040  209.2240 C.2    57  ILE57       0.2260
     29  O         21.9520   26.0100  210.1910 O.2    57  ILE57      -0.2867
     30  CB        23.3550   23.7220  208.2270 C.3    57  ILE57       0.0252
     31  CG1       23.8520   22.2760  208.2650 C.3    57  ILE57       0.0019
     32  CG2       24.4720   24.6610  208.6840 C.3    57  ILE57       0.0019
     33  CD1       24.9940   21.9950  207.3170 C.3    57  ILE57       0.0001
     34  N         20.0020   25.8720  212.4410 N.3    60  LEU60      -0.1231
     35  CA        20.9330   26.0220  213.5510 C.3    60  LEU60       0.1693
     36  C         21.5830   27.3990  213.5820 C.2    60  LEU60       0.2591
     37  O         21.9050   27.9200  214.6550 O.2    60  LEU60      -0.2718
     38  CB        22.0370   24.9670  213.4650 C.3    60  LEU60       0.0284
     39  CG        21.7230   23.5630  213.9610 C.3    60  LEU60       0.0019
     40  CD1       20.4960   23.0460  213.2690 C.3    60  LEU60       0.0001
     41  CD2       22.9170   22.6620  213.7000 C.3    60  LEU60       0.0001
     42  N         21.7890   27.9850  212.4070 N.am   61  LEU61      -0.1980
     43  CA        22.4250   29.2900  212.3400 C.3    61  LEU61       0.1596
     44  C         21.4560   30.4490  212.5480 C.2    61  LEU61       0.2287
     45  O         21.8850   31.5980  212.7010 O.2    61  LEU61      -0.2864
     46  CB        23.1430   29.4550  210.9990 C.3    61  LEU61       0.0297
     47  CG        24.4430   28.6750  210.8210 C.3    61  LEU61       0.0022
     48  CD1       24.8820   28.7360  209.3740 C.3    61  LEU61       0.0001
     49  CD2       25.5050   29.2510  211.7250 C.3    61  LEU61       0.0001
     50  N         24.6580   31.4660  220.2760 N.3    68  TRP68      -0.1241
     51  CA        25.6500   32.0980  219.4170 C.3    68  TRP68       0.1605
     52  C         26.4280   33.2460  220.0580 C.2    68  TRP68       0.2264
     53  O         27.5380   33.5600  219.6320 O.2    68  TRP68      -0.2867
     54  CB        24.9870   32.5570  218.1130 C.3    68  TRP68       0.0550
     55  CG        24.5380   31.3950  217.2710 C.ar   68  TRP68       0.0003
     56  CD1       23.2640   30.9440  217.1120 C.ar   68  TRP68       0.0946
     57  CD2       25.3770   30.4980  216.5300 C.ar   68  TRP68       0.0152
     58  NE1       23.2500   29.8190  216.3180 N.ar   68  TRP68      -0.2442
     59  CE2       24.5340   29.5210  215.9470 C.ar   68  TRP68       0.0810
     60  CE3       26.7600   30.4220  216.3020 C.ar   68  TRP68       0.0012
     61  CZ2       25.0280   28.4770  215.1480 C.ar   68  TRP68       0.0191
     62  CZ3       27.2540   29.3810  215.5040 C.ar   68  TRP68       0.0001
     63  CH2       26.3860   28.4240  214.9390 C.ar   68  TRP68       0.0015
     64  N         34.5710   28.0280  213.1810 N.3    80  LEU80      -0.1245
     65  CA        33.4270   27.9530  212.2860 C.3    80  LEU80       0.1561
     66  C         33.6380   28.7670  211.0060 C.2    80  LEU80       0.2260
     67  O         33.3450   28.2910  209.9060 O.2    80  LEU80      -0.2867
     68  CB        32.1700   28.4300  213.0160 C.3    80  LEU80       0.0270
     69  CG        31.7130   27.6130  214.2280 C.3    80  LEU80       0.0019
     70  CD1       30.5100   28.2770  214.8590 C.3    80  LEU80       0.0001
     71  CD2       31.3500   26.2010  213.7990 C.3    80  LEU80       0.0001
     72  N         35.6770   26.7510  208.7840 N.3    83  LEU83      -0.1231
     73  CA        34.9350   25.5940  208.3070 C.3    83  LEU83       0.1693
     74  C         34.1010   26.0180  207.1150 C.2    83  LEU83       0.2591
     75  O         34.0380   25.3190  206.0940 O.2    83  LEU83      -0.2718
     76  CB        34.0140   25.0730  209.3970 C.3    83  LEU83       0.0284
     77  CG        33.2490   23.8360  208.9460 C.3    83  LEU83       0.0019
     78  CD1       34.2370   22.6880  208.7080 C.3    83  LEU83       0.0001
     79  CD2       32.2180   23.4610  210.0020 C.3    83  LEU83       0.0001
     80  N         33.4670   27.1770  207.2740 N.am   84  VAL84      -0.1980
     81  CA        32.6150   27.7850  206.2630 C.3    84  VAL84       0.1595
     82  C         33.4540   28.1710  205.0420 C.2    84  VAL84       0.2287
     83  O         33.1470   27.7950  203.9070 O.2    84  VAL84      -0.2864
     84  CB        31.9450   29.0440  206.8500 C.3    84  VAL84       0.0276
     85  CG1       31.2950   29.8450  205.7780 C.3    84  VAL84       0.0022
     86  CG2       30.9290   28.6440  207.8790 C.3    84  VAL84       0.0022
     87  N         34.8730   24.6880  203.2130 N.3    87  VAL87      -0.1231
     88  CA        33.8780   23.8030  202.6200 C.3    87  VAL87       0.1692
     89  C         33.1340   24.4940  201.4830 C.2    87  VAL87       0.2591
     90  O         32.7760   23.8750  200.4810 O.2    87  VAL87      -0.2718
     91  CB        32.8560   23.3240  203.6680 C.3    87  VAL87       0.0266
     92  CG1       31.8320   22.4220  203.0150 C.3    87  VAL87       0.0020
     93  CG2       33.5650   22.5890  204.7780 C.3    87  VAL87       0.0020
     94  N         32.9080   25.7880  201.6460 N.am   88  ARG88      -0.1980
     95  CA        32.2190   26.5770  200.6440 C.3    88  ARG88       0.1597
     96  C         33.1370   26.7670  199.4340 C.2    88  ARG88       0.2287
     97  O         32.6990   26.6750  198.2870 O.2    88  ARG88      -0.2864
     98  CB        31.8510   27.9270  201.2500 C.3    88  ARG88       0.0334
     99  CG        30.3930   28.3200  201.1250 C.3    88  ARG88       0.0492
    100  CD        29.4400   27.2210  201.5430 C.3    88  ARG88       0.2205
    101  NE        28.2290   27.7630  202.1510 N.pl3  88  ARG88      -0.0865
    102  CZ        27.0030   27.2620  201.9960 C.cat  88  ARG88       0.5346
    103  NH1       26.7980   26.1960  201.2290 N.pl3  88  ARG88       0.1354
    104  NH2       25.9800   27.8100  202.6430 N.pl3  88  ARG88       0.1354
    105  N         34.1230   24.0560  196.3670 N.3    91  LEU91      -0.1245
    106  CA        33.1160   23.7810  195.3560 C.3    91  LEU91       0.1561
    107  C         33.4280   24.5710  194.0890 C.2    91  LEU91       0.2260
    108  O         32.8260   24.3560  193.0430 O.2    91  LEU91      -0.2867
    109  CB        31.7220   24.1270  195.8980 C.3    91  LEU91       0.0270
    110  CG        30.8850   22.9140  196.3260 C.3    91  LEU91       0.0019
    111  CD1       31.6660   22.0620  197.2840 C.3    91  LEU91       0.0001
    112  CD2       29.5940   23.3650  196.9570 C.3    91  LEU91       0.0001
    113  N         25.5440   33.6710  213.7250 N.3   325  LEU325     -0.1245
    114  CA        26.9840   33.4620  213.7500 C.3   325  LEU325      0.1561
    115  C         27.5980   34.7260  213.1820 C.2   325  LEU325      0.2260
    116  O         27.2260   35.1530  212.0940 O.2   325  LEU325     -0.2867
    117  CB        27.3580   32.2870  212.8590 C.3   325  LEU325      0.0270
    118  CG        28.8470   32.1120  212.5770 C.3   325  LEU325      0.0019
    119  CD1       29.5610   31.8010  213.8810 C.3   325  LEU325      0.0001
    120  CD2       29.0530   30.9860  211.5540 C.3   325  LEU325      0.0001
    121  N         26.2510   21.6580  193.2290 N.3   438  PHE438     -0.1227
    122  CA        26.4710   22.4190  194.4430 C.3   438  PHE438      0.1736
    123  C         25.9960   21.7050  195.7110 C.2   438  PHE438      0.2596
    124  O         25.6000   22.3420  196.6920 O.2   438  PHE438     -0.2718
    125  CB        25.8150   23.7890  194.3090 C.3   438  PHE438      0.0547
    126  CG        26.6250   24.7550  193.5040 C.ar  438  PHE438     -0.0202
    127  CD1       27.6560   25.4800  194.0980 C.ar  438  PHE438     -0.0042
    128  CD2       26.3930   24.9110  192.1380 C.ar  438  PHE438     -0.0042
    129  CE1       28.4420   26.3470  193.3470 C.ar  438  PHE438     -0.0003
    130  CE2       27.1770   25.7760  191.3760 C.ar  438  PHE438     -0.0003
    131  CZ        28.2040   26.4950  191.9820 C.ar  438  PHE438     -0.0000
    132  N         26.0490   20.3750  195.6620 N.am  439  GLY439     -0.1942
    133  CA        25.6800   19.5350  196.7850 C.3   439  GLY439      0.2014
    134  C         24.2260   19.4170  197.1840 C.2   439  GLY439      0.2638
    135  O         23.9530   19.1140  198.3410 O.2   439  GLY439     -0.2714
    136  N         23.2910   19.6460  196.2660 N.am  440  MET440     -0.1976
    137  CA        21.8670   19.5460  196.6050 C.3   440  MET440      0.1605
    138  C         21.1320   18.5190  195.7600 C.2   440  MET440      0.2287
    139  O         21.5110   18.2670  194.6170 O.2   440  MET440     -0.2864
    140  CB        21.1730   20.8940  196.4240 C.3   440  MET440      0.0413
    141  CG        21.5390   21.9280  197.4570 C.3   440  MET440      0.0598
    142  SD        21.0300   23.5610  196.9140 S.3   440  MET440     -0.1393
    143  CE        22.4670   23.9770  195.8550 C.3   440  MET440      0.0692
    144  N         23.3220   28.2750  198.6670 N.3   492  GLU492     -0.1245
    145  CA        24.2160   27.1530  198.4280 C.3   492  GLU492      0.1567
    146  C         25.0330   27.2330  197.1480 C.2   492  GLU492      0.2260
    147  O         26.0400   26.5340  197.0100 O.2   492  GLU492     -0.2867
    148  CB        23.4160   25.8550  198.4450 C.3   492  GLU492      0.0388
    149  CG        22.7660   25.5940  199.7860 C.3   492  GLU492      0.1160
    150  CD        23.7860   25.5330  200.8960 C.2   492  GLU492      0.3649
    151  OE1       24.5480   24.5480  200.9440 O.co2 492  GLU492     -0.2457
    152  OE2       23.8340   26.4720  201.7110 O.co2 492  GLU492     -0.2457
@<TRIPOS>BOND
     1   130   131   ar
     2   130   128   ar
     3   131   129   ar
     4   128   126   ar
     5   108   107    2
     6   121   122    1
     7   129   127   ar
     8   126   127   ar
     9   126   125    1
    10   107   106    1
    11   125   122    1
    12   122   123    1
    13   139   138    2
    14   106   109    1
    15   106   105    1
    16   132   123   am
    17   132   133    1
    18   123   124    2
    19   138   137    1
    20   143   142    1
    21   109   110    1
    22   136   137    1
    23   136   134   am
    24   110   112    1
    25   110   111    1
    26   140   137    1
    27   140   141    1
    28   133   134    1
    29   142   141    1
    30   147   146    2
    31   146   145    1
    32   134   135    2
    33    97    96    2
    34   145   148    1
    35   145   144    1
    36   148   149    1
    37    96    95    1
    38   149   150    1
    39    90    89    2
    40    95    98    1
    41    95    94    1
    42    10     9    1
    43   150   151   ar
    44   150   152   ar
    45    11     9    1
    46    99    98    1
    47    99   100    1
    48   103   102    1
    49     9     8    2
    50    89    94   am
    51    89    88    1
    52   100   101    1
    53    24    23    1
    54    24    25    1
    55   102   101    2
    56   102   104    1
    57    23    20    1
    58     8     7    1
    59    88    87    1
    60    88    91    1
    61    25    19    1
    62    92    91    1
    63     7     6    1
    64    91    93    1
    65    83    82    2
    66    20    19    1
    67    20    21    1
    68    21    22    2
    69     6     5    1
    70    82    81    1
    71     5     2    1
    72    15    14    2
    73    85    84    1
    74    75    74    2
    75     4     3    2
    76    81    84    1
    77    81    80    1
    78    14    13    1
    79     2     3    1
    80     2     1    1
    81     3    12   am
    82    84    86    1
    83    74    80   am
    84    74    73    1
    85    33    31    1
    86    12    13    1
    87    12    18    1
    88    13    16    1
    89    30    31    1
    90    30    32    1
    91    30    27    1
    92    18    17    1
    93    73    72    1
    94    73    76    1
    95    26    27    1
    96    78    77    1
    97    17    16    1
    98    77    76    1
    99    77    79    1
   100    27    28    1
   101    28    29    2
   102    48    47    1
   103    67    66    2
   104    47    46    1
   105    47    49    1
   106    46    43    1
   107    66    65    1
   108   120   118    1
   109   116   115    2
   110    65    68    1
   111    65    64    1
   112    43    42    1
   113    43    44    1
   114    42    36   am
   115    34    35    1
   116    44    45    2
   117   118   117    1
   118   118   119    1
   119   117   114    1
   120    68    69    1
   121   115   114    1
   122    40    39    1
   123    38    35    1
   124    38    39    1
   125    35    36    1
   126    36    37    2
   127    41    39    1
   128   113   114    1
   129    71    69    1
   130    69    70    1
   131    63    61   ar
   132    63    62   ar
   133    61    59   ar
   134    62    60   ar
   135    59    58   ar
   136    59    57   ar
   137    60    57   ar
   138    58    56   ar
   139    57    55   ar
   140    56    55   ar
   141    55    54    1
   142    54    51    1
   143    51    52    1
   144    51    50    1
   145    53    52    2
