@<TRIPOS>MOLECULE
tmp/1ht5A03.pdb
 92 89 0 0 0
SMALL
GASTEIGER

@<TRIPOS>ATOM
      1  N         10.2040   64.0620  199.1390 N.3   368  GLN368     -0.1245
      2  CA        10.0940   63.7750  197.7150 C.3   368  GLN368      0.1566
      3  C         10.0750   62.2910  197.3630 C.2   368  GLN368      0.2260
      4  O         10.7220   61.4770  198.0210 O.2   368  GLN368     -0.2867
      5  CB        11.2310   64.4610  196.9620 C.3   368  GLN368      0.0367
      6  CG        10.7900   65.6550  196.1300 C.3   368  GLN368      0.0905
      7  CD         9.8840   65.2630  194.9680 C.2   368  GLN368      0.2608
      8  OE1        9.5410   66.0940  194.1270 O.2   368  GLN368     -0.2717
      9  NE2        9.4950   63.9910  194.9160 N.am  368  GLN368     -0.0878
     10  N         10.6760   60.2640  193.9390 N.3   370  TYR370     -0.1241
     11  CA        11.0640   60.2130  192.5350 C.3   370  TYR370      0.1605
     12  C         10.7320   58.9180  191.8100 C.2   370  TYR370      0.2264
     13  O         10.8240   57.8310  192.3710 O.2   370  TYR370     -0.2867
     14  CB        12.5590   60.4790  192.4250 C.3   370  TYR370      0.0534
     15  CG        12.9330   61.8320  192.9520 C.ar  370  TYR370     -0.0201
     16  CD1       12.6530   62.9820  192.2180 C.ar  370  TYR370     -0.0009
     17  CD2       13.5270   61.9750  194.2040 C.ar  370  TYR370     -0.0009
     18  CE1       12.9540   64.2390  192.7120 C.ar  370  TYR370      0.0417
     19  CE2       13.8310   63.2370  194.7120 C.ar  370  TYR370      0.0417
     20  CZ        13.5410   64.3620  193.9550 C.ar  370  TYR370      0.1957
     21  OH        13.8400   65.6150  194.4340 O.3   370  TYR370     -0.2866
     22  N         11.7510   57.4790  185.8470 N.3   373  GLU373     -0.1231
     23  CA        12.0090   58.4570  184.7920 C.3   373  GLU373      0.1699
     24  C         12.7790   59.6810  185.2930 C.2   373  GLU373      0.2592
     25  O         13.5350   60.2940  184.5430 O.2   373  GLU373     -0.2718
     26  CB        10.6910   58.8890  184.1320 C.3   373  GLU373      0.0402
     27  CG         9.4350   58.5310  184.9320 C.3   373  GLU373      0.1161
     28  CD         9.0040   57.0790  184.7560 C.2   373  GLU373      0.3649
     29  OE1        8.2900   56.5570  185.6430 O.co2 373  GLU373     -0.2457
     30  OE2        9.3640   56.4690  183.7240 O.co2 373  GLU373     -0.2457
     31  N         12.5990   60.0240  186.5630 N.am  374  GLN374     -0.1979
     32  CA        13.2850   61.1760  187.1480 C.3   374  GLN374      0.1601
     33  C         14.6090   60.7720  187.7860 C.2   374  GLN374      0.2287
     34  O         15.5210   61.5910  187.9530 O.2   374  GLN374     -0.2864
     35  CB        12.4230   61.8190  188.2360 C.3   374  GLN374      0.0394
     36  CG        11.0110   62.1660  187.8240 C.3   374  GLN374      0.0908
     37  CD        10.1600   62.5590  189.0190 C.2   374  GLN374      0.2608
     38  OE1       10.0050   61.7840  189.9700 O.2   374  GLN374     -0.2717
     39  NE2        9.6050   63.7630  188.9790 N.am  374  GLN374     -0.0878
     40  N         18.5760   58.9980  184.4850 N.3   377  PHE377     -0.1227
     41  CA        19.7040   59.7330  183.9170 C.3   377  PHE377      0.1736
     42  C         19.8970   61.0980  184.5480 C.2   377  PHE377      0.2595
     43  O         20.4030   62.0280  183.9070 O.2   377  PHE377     -0.2718
     44  CB        19.5460   59.8770  182.4030 C.3   377  PHE377      0.0547
     45  CG        19.3960   58.5670  181.6840 C.ar  377  PHE377     -0.0202
     46  CD1       18.1410   58.1350  181.2520 C.ar  377  PHE377     -0.0042
     47  CD2       20.5050   57.7570  181.4510 C.ar  377  PHE377     -0.0042
     48  CE1       17.9930   56.9110  180.5950 C.ar  377  PHE377     -0.0003
     49  CE2       20.3740   56.5330  180.7970 C.ar  377  PHE377     -0.0003
     50  CZ        19.1150   56.1070  180.3670 C.ar  377  PHE377     -0.0000
     51  N         19.5040   61.2020  185.8140 N.am  378  ASN378     -0.1974
     52  CA        19.6030   62.4480  186.5640 C.3   378  ASN378      0.1688
     53  C         21.0440   62.9130  186.7070 C.2   378  ASN378      0.2292
     54  O         21.8660   62.2440  187.3320 O.2   378  ASN378     -0.2864
     55  CB        18.9960   62.2690  187.9430 C.3   378  ASN378      0.1181
     56  CG        18.5200   63.5650  188.5300 C.2   378  ASN378      0.2629
     57  OD1       19.3030   64.4820  188.7740 O.2   378  ASN378     -0.2716
     58  ND2       17.2220   63.6520  188.7620 N.am  378  ASN378     -0.0877
     59  N         22.0700   65.6730  188.3090 N.3   380  SER380     -0.1202
     60  CA        22.3140   66.5520  189.4520 C.3   380  SER380      0.2020
     61  C         21.7610   66.1160  190.8080 C.2   380  SER380      0.2618
     62  O         22.0490   66.7630  191.8200 O.2   380  SER380     -0.2717
     63  CB        21.7790   67.9450  189.1460 C.3   380  SER380      0.2103
     64  OG        20.3770   67.9020  188.9830 O.3   380  SER380     -0.2182
     65  N         20.9850   65.0350  190.8530 N.am  381  MET381     -0.1979
     66  CA        20.4210   64.6120  192.1280 C.3   381  MET381      0.1605
     67  C         21.4890   64.3530  193.1730 C.2   381  MET381      0.2287
     68  O         21.2930   64.6550  194.3510 O.2   381  MET381     -0.2864
     69  CB        19.5560   63.3680  191.9810 C.3   381  MET381      0.0413
     70  CG        18.7200   63.1200  193.2210 C.3   381  MET381      0.0598
     71  SD        17.7390   61.6240  193.1820 S.3   381  MET381     -0.1393
     72  CE        16.4980   62.0530  191.9710 C.3   381  MET381      0.0692
     73  N         22.7060   67.7890  194.2250 N.3   384  ASP384     -0.1225
     74  CA        21.6390   68.5600  194.8540 C.3   384  ASP384      0.1805
     75  C         21.5620   68.1880  196.3410 C.2   384  ASP384      0.2597
     76  O         21.6310   69.0580  197.2100 O.2   384  ASP384     -0.2718
     77  CB        20.2720   68.3030  194.1870 C.3   384  ASP384      0.1424
     78  CG        20.1620   68.9140  192.7890 C.2   384  ASP384      0.3668
     79  OD1       20.6490   70.0420  192.5820 O.co2 384  ASP384     -0.2456
     80  OD2       19.5680   68.2740  191.8930 O.co2 384  ASP384     -0.2456
     81  N         21.4480   66.8940  196.6320 N.am  385  TYR385     -0.1976
     82  CA        21.3390   66.4380  198.0110 C.3   385  TYR385      0.1639
     83  C         22.6430   66.2120  198.7620 C.2   385  TYR385      0.2290
     84  O         22.6650   66.2770  199.9940 O.2   385  TYR385     -0.2864
     85  CB        20.5190   65.1540  198.0740 C.3   385  TYR385      0.0560
     86  CG        19.0560   65.3460  197.7610 C.ar  385  TYR385     -0.0198
     87  CD1       18.5980   65.3850  196.4450 C.ar  385  TYR385     -0.0009
     88  CD2       18.1210   65.4770  198.7900 C.ar  385  TYR385     -0.0009
     89  CE1       17.2390   65.5430  196.1640 C.ar  385  TYR385      0.0417
     90  CE2       16.7720   65.6350  198.5230 C.ar  385  TYR385      0.0417
     91  CZ        16.3320   65.6640  197.2130 C.ar  385  TYR385      0.1957
     92  OH        14.9800   65.7840  196.9650 O.3   385  TYR385     -0.2866
@<TRIPOS>BOND
     1    50    48   ar
     2    50    49   ar
     3    48    46   ar
     4    49    47   ar
     5    46    45   ar
     6    47    45   ar
     7    45    44    1
     8    44    41    1
     9    30    28   ar
    10    43    42    2
    11    41    40    1
    12    41    42    1
    13    26    23    1
    14    26    27    1
    15    25    24    2
    16    42    51   am
    17    28    27    1
    18    28    29   ar
    19    23    24    1
    20    23    22    1
    21    24    31   am
    22    51    52    1
    23    31    32    1
    24    52    53    1
    25    52    55    1
    26    53    54    2
    27    32    33    1
    28    32    35    1
    29    33    34    2
    30    36    35    1
    31    36    37    1
    32    55    56    1
    33    59    60    1
    34    56    58   am
    35    56    57    2
    36    39    37   am
    37    64    63    1
    38    37    38    2
    39    63    60    1
    40    60    61    1
    41    61    65   am
    42    61    62    2
    43    65    66    1
    44    12    13    2
    45    12    11    1
    46    80    78   ar
    47    72    71    1
    48    69    66    1
    49    69    70    1
    50    66    67    1
    51    16    18   ar
    52    16    15   ar
    53    14    11    1
    54    14    15    1
    55    11    10    1
    56    79    78   ar
    57    18    20   ar
    58    78    77    1
    59    15    17   ar
    60    67    68    2
    61    71    70    1
    62    20    21    1
    63    20    19   ar
    64     8     7    2
    65    77    74    1
    66    17    19   ar
    67    73    74    1
    68    74    75    1
    69     9     7   am
    70     7     6    1
    71     6     5    1
    72    89    87   ar
    73    89    91   ar
    74    75    81   am
    75    75    76    2
    76    87    86   ar
    77    81    82    1
    78     5     2    1
    79    92    91    1
    80    91    90   ar
    81     3     2    1
    82     3     4    2
    83     2     1    1
    84    86    85    1
    85    86    88   ar
    86    82    85    1
    87    82    83    1
    88    90    88   ar
    89    83    84    2
