@<TRIPOS>MOLECULE
tmp/1ht5A05.pdb
 182 174 0 0 0
SMALL
GASTEIGER

@<TRIPOS>ATOM
      1  N         21.7890   27.9850  212.4070 N.3    61  LEU61      -0.1245
      2  CA        22.4250   29.2900  212.3400 C.3    61  LEU61       0.1561
      3  C         21.4560   30.4490  212.5480 C.2    61  LEU61       0.2260
      4  O         21.8850   31.5980  212.7010 O.2    61  LEU61      -0.2867
      5  CB        23.1430   29.4550  210.9990 C.3    61  LEU61       0.0270
      6  CG        24.4430   28.6750  210.8210 C.3    61  LEU61       0.0019
      7  CD1       24.8820   28.7360  209.3740 C.3    61  LEU61       0.0001
      8  CD2       25.5050   29.2510  211.7250 C.3    61  LEU61       0.0001
      9  N         34.1480   29.9860  211.1410 N.3    81  MET81      -0.1245
     10  CA        34.3720   30.8360  209.9730 C.3    81  MET81       0.1570
     11  C         35.3000   30.1710  208.9550 C.2    81  MET81       0.2261
     12  O         35.2020   30.4260  207.7480 O.2    81  MET81      -0.2867
     13  CB        34.9750   32.1760  210.3940 C.3    81  MET81       0.0387
     14  CG        35.0190   33.2060  209.2830 C.3    81  MET81       0.0595
     15  SD        33.3520   33.6420  208.7780 S.3    81  MET81      -0.1393
     16  CE        33.5690   33.8790  207.0230 C.3    81  MET81       0.0692
     17  N         33.4670   27.1770  207.2740 N.3    84  VAL84      -0.1245
     18  CA        32.6150   27.7850  206.2630 C.3    84  VAL84       0.1561
     19  C         33.4540   28.1710  205.0420 C.2    84  VAL84       0.2260
     20  O         33.1470   27.7950  203.9070 O.2    84  VAL84      -0.2867
     21  CB        31.9450   29.0440  206.8500 C.3    84  VAL84       0.0252
     22  CG1       31.2950   29.8450  205.7780 C.3    84  VAL84       0.0019
     23  CG2       30.9290   28.6440  207.8790 C.3    84  VAL84       0.0019
     24  N         32.9080   25.7880  201.6460 N.3    88  ARG88      -0.1245
     25  CA        32.2190   26.5770  200.6440 C.3    88  ARG88       0.1563
     26  C         33.1370   26.7670  199.4340 C.2    88  ARG88       0.2260
     27  O         32.6990   26.6750  198.2870 O.2    88  ARG88      -0.2867
     28  CB        31.8510   27.9270  201.2500 C.3    88  ARG88       0.0307
     29  CG        30.3930   28.3200  201.1250 C.3    88  ARG88       0.0489
     30  CD        29.4400   27.2210  201.5430 C.3    88  ARG88       0.2205
     31  NE        28.2290   27.7630  202.1510 N.pl3  88  ARG88      -0.0865
     32  CZ        27.0030   27.2620  201.9960 C.cat  88  ARG88       0.5346
     33  NH1       26.7980   26.1960  201.2290 N.pl3  88  ARG88       0.1354
     34  NH2       25.9800   27.8100  202.6430 N.pl3  88  ARG88       0.1354
     35  N         27.8850   43.1040  204.7220 N.3   316  TYR316     -0.1227
     36  CA        27.1290   42.7750  203.5180 C.3   316  TYR316      0.1736
     37  C         26.5890   41.3570  203.6710 C.2   316  TYR316      0.2595
     38  O         25.3930   41.1470  203.8260 O.2   316  TYR316     -0.2718
     39  CB        28.0590   42.8560  202.3040 C.3   316  TYR316      0.0548
     40  CG        27.4200   42.6240  200.9560 C.ar  316  TYR316     -0.0200
     41  CD1       26.7110   43.6360  200.3150 C.ar  316  TYR316     -0.0009
     42  CD2       27.5760   41.4090  200.2970 C.ar  316  TYR316     -0.0009
     43  CE1       26.1760   43.4470  199.0400 C.ar  316  TYR316      0.0417
     44  CE2       27.0520   41.2020  199.0280 C.ar  316  TYR316      0.0417
     45  CZ        26.3540   42.2210  198.3980 C.ar  316  TYR316      0.1957
     46  OH        25.8560   42.0220  197.1210 O.3   316  TYR316     -0.2866
     47  N         27.4870   40.3830  203.6480 N.am  317  VAL317     -0.1980
     48  CA        27.0900   38.9930  203.7740 C.3   317  VAL317      0.1595
     49  C         26.3490   38.7310  205.0890 C.2   317  VAL317      0.2287
     50  O         25.4220   37.9290  205.1390 O.2   317  VAL317     -0.2864
     51  CB        28.3280   38.0570  203.6490 C.3   317  VAL317      0.0276
     52  CG1       27.9070   36.6060  203.8160 C.3   317  VAL317      0.0022
     53  CG2       28.9960   38.2490  202.2770 C.3   317  VAL317      0.0022
     54  N         22.7670   39.6260  204.5240 N.3   320  LEU320     -0.1231
     55  CA        22.1850   38.6700  203.6060 C.3   320  LEU320      0.1693
     56  C         21.8130   37.3570  204.2690 C.2   320  LEU320      0.2592
     57  O         20.6760   36.9000  204.1600 O.2   320  LEU320     -0.2718
     58  CB        23.1740   38.3860  202.4940 C.3   320  LEU320      0.0284
     59  CG        22.8260   38.8890  201.1190 C.3   320  LEU320      0.0019
     60  CD1       23.8720   38.3620  200.1440 C.3   320  LEU320      0.0001
     61  CD2       21.4290   38.4010  200.7530 C.3   320  LEU320      0.0001
     62  N         22.7870   36.7510  204.9440 N.am  321  SER321     -0.1952
     63  CA        22.6000   35.4640  205.6060 C.3   321  SER321      0.1924
     64  C         21.6440   35.5120  206.7820 C.2   321  SER321      0.2314
     65  O         20.8990   34.5610  207.0120 O.2   321  SER321     -0.2863
     66  CB        23.9400   34.9270  206.1060 C.3   321  SER321      0.2116
     67  OG        24.3820   35.6440  207.2490 O.3   321  SER321     -0.2180
     68  N         22.4950   35.2800  209.7340 N.3   323  TYR323     -0.1241
     69  CA        23.0180   34.3150  210.7040 C.3   323  TYR323      0.1605
     70  C         23.3090   34.9240  212.0680 C.2   323  TYR323      0.2264
     71  O         23.6730   36.0930  212.1790 O.2   323  TYR323     -0.2867
     72  CB        24.3160   33.6730  210.1880 C.3   323  TYR323      0.0534
     73  CG        24.1580   32.8340  208.9410 C.ar  323  TYR323     -0.0201
     74  CD1       25.2660   32.2280  208.3310 C.ar  323  TYR323     -0.0009
     75  CD2       22.9060   32.6510  208.3600 C.ar  323  TYR323     -0.0009
     76  CE1       25.1230   31.4610  207.1700 C.ar  323  TYR323      0.0417
     77  CE2       22.7560   31.8940  207.2070 C.ar  323  TYR323      0.0417
     78  CZ        23.8630   31.3020  206.6140 C.ar  323  TYR323      0.1957
     79  OH        23.6720   30.5740  205.4610 O.3   323  TYR323     -0.2866
     80  N         30.0200   36.4090  211.1330 N.3   327  LEU327     -0.1245
     81  CA        31.0360   36.1570  210.1200 C.3   327  LEU327      0.1561
     82  C         32.2570   36.9970  210.4580 C.2   327  LEU327      0.2260
     83  O         32.1440   38.0460  211.1130 O.2   327  LEU327     -0.2867
     84  CB        30.5050   36.5180  208.7360 C.3   327  LEU327      0.0270
     85  CG        29.2310   35.7510  208.3860 C.3   327  LEU327      0.0019
     86  CD1       28.7720   36.1430  207.0100 C.3   327  LEU327      0.0001
     87  CD2       29.4950   34.2530  208.4510 C.3   327  LEU327      0.0001
     88  N         27.7730   32.8080  188.0850 N.3   349  PHE349     -0.1241
     89  CA        27.7830   33.7450  189.1960 C.3   349  PHE349      0.1605
     90  C         27.2080   35.0780  188.6890 C.2   349  PHE349      0.2264
     91  O         26.5210   35.7830  189.4220 O.2   349  PHE349     -0.2867
     92  CB        29.2170   33.9190  189.6910 C.3   349  PHE349      0.0534
     93  CG        29.3570   34.7760  190.9280 C.ar  349  PHE349     -0.0203
     94  CD1       28.3790   34.7700  191.9220 C.ar  349  PHE349     -0.0042
     95  CD2       30.5170   35.5320  191.1280 C.ar  349  PHE349     -0.0042
     96  CE1       28.5490   35.5000  193.1050 C.ar  349  PHE349     -0.0003
     97  CE2       30.7040   36.2650  192.3040 C.ar  349  PHE349     -0.0003
     98  CZ        29.7140   36.2500  193.3020 C.ar  349  PHE349     -0.0000
     99  N         23.3610   34.5520  188.4010 N.3   352  LEU352     -0.1231
    100  CA        22.8950   34.4800  189.7830 C.3   352  LEU352      0.1693
    101  C         22.8060   35.8280  190.4870 C.2   352  LEU352      0.2592
    102  O         21.8820   36.0640  191.2560 O.2   352  LEU352     -0.2718
    103  CB        23.8100   33.5440  190.5820 C.3   352  LEU352      0.0284
    104  CG        23.5270   33.2620  192.0610 C.3   352  LEU352      0.0019
    105  CD1       24.2990   32.0170  192.4800 C.3   352  LEU352      0.0001
    106  CD2       23.9200   34.4530  192.9210 C.3   352  LEU352      0.0001
    107  N         23.7620   36.7120  190.2250 N.am  353  TYR353     -0.1976
    108  CA        23.7860   38.0170  190.8710 C.3   353  TYR353      0.1639
    109  C         22.8840   39.1100  190.2830 C.2   353  TYR353      0.2290
    110  O         23.0700   40.2890  190.5830 O.2   353  TYR353     -0.2864
    111  CB        25.2210   38.5300  190.9240 C.3   353  TYR353      0.0560
    112  CG        25.6790   38.8920  192.3160 C.ar  353  TYR353     -0.0198
    113  CD1       26.8450   38.3440  192.8490 C.ar  353  TYR353     -0.0009
    114  CD2       24.9530   39.7920  193.1040 C.ar  353  TYR353     -0.0009
    115  CE1       27.2790   38.6800  194.1270 C.ar  353  TYR353      0.0417
    116  CE2       25.3820   40.1390  194.3870 C.ar  353  TYR353      0.0417
    117  CZ        26.5460   39.5770  194.8910 C.ar  353  TYR353      0.1957
    118  OH        26.9820   39.9010  196.1570 O.3   353  TYR353     -0.2866
    119  N         20.1520   40.8010  190.8900 N.3   355  TRP355     -0.1241
    120  CA        19.1770   41.0420  191.9420 C.3   355  TRP355      0.1605
    121  C         18.2940   42.2530  191.7180 C.2   355  TRP355      0.2264
    122  O         18.0730   43.0480  192.6340 O.2   355  TRP355     -0.2867
    123  CB        19.9000   41.1810  193.2720 C.3   355  TRP355      0.0550
    124  CG        20.6220   39.9530  193.6650 C.ar  355  TRP355      0.0003
    125  CD1       20.5580   38.7370  193.0580 C.ar  355  TRP355      0.0946
    126  CD2       21.4500   39.7860  194.8150 C.ar  355  TRP355      0.0152
    127  NE1       21.2840   37.8180  193.7640 N.ar  355  TRP355     -0.2442
    128  CE2       21.8420   38.4350  194.8510 C.ar  355  TRP355      0.0810
    129  CE3       21.8940   40.6490  195.8250 C.ar  355  TRP355      0.0012
    130  CZ2       22.6570   37.9180  195.8620 C.ar  355  TRP355      0.0191
    131  CZ3       22.7050   40.1350  196.8300 C.ar  355  TRP355      0.0001
    132  CH2       23.0760   38.7800  196.8400 C.ar  355  TRP355      0.0015
    133  N         15.6350   35.2220  200.0670 N.3   486  PHE486     -0.1241
    134  CA        15.5680   34.2540  198.9750 C.3   486  PHE486      0.1605
    135  C         15.6460   32.8010  199.4250 C.2   486  PHE486      0.2264
    136  O         15.5790   32.5060  200.6230 O.2   486  PHE486     -0.2867
    137  CB        16.6140   34.5450  197.8830 C.3   486  PHE486      0.0534
    138  CG        17.9910   34.8880  198.3970 C.ar  486  PHE486     -0.0203
    139  CD1       18.6840   35.9780  197.8660 C.ar  486  PHE486     -0.0042
    140  CD2       18.6200   34.1070  199.3630 C.ar  486  PHE486     -0.0042
    141  CE1       19.9820   36.2870  198.2850 C.ar  486  PHE486     -0.0003
    142  CE2       19.9250   34.4120  199.7880 C.ar  486  PHE486     -0.0003
    143  CZ        20.6010   35.5040  199.2450 C.ar  486  PHE486     -0.0000
    144  N         19.9790   30.0360  196.1970 N.3   490  MET490     -0.1230
    145  CA        20.7000   31.2890  196.0420 C.3   490  MET490      0.1702
    146  C         21.8630   31.3130  197.0490 C.2   490  MET490      0.2592
    147  O         22.8960   31.9290  196.8030 O.2   490  MET490     -0.2718
    148  CB        19.7500   32.4670  196.2810 C.3   490  MET490      0.0401
    149  CG        20.3050   33.8390  195.9100 C.3   490  MET490      0.0596
    150  SD        20.5340   34.1320  194.1350 S.3   490  MET490     -0.1393
    151  CE        18.8750   34.2900  193.5840 C.3   490  MET490      0.0692
    152  N         21.6970   30.6190  198.1740 N.am  491  ILE491     -0.1980
    153  CA        22.7280   30.5690  199.2090 C.3   491  ILE491      0.1595
    154  C         23.7790   29.4860  198.9530 C.2   491  ILE491      0.2287
    155  O         24.9800   29.7480  199.0000 O.2   491  ILE491     -0.2864
    156  CB        22.1000   30.3360  200.6130 C.3   491  ILE491      0.0276
    157  CG1       21.2240   31.5300  201.0000 C.3   491  ILE491      0.0022
    158  CG2       23.1910   30.1640  201.6630 C.3   491  ILE491      0.0022
    159  CD1       20.5680   31.3960  202.3580 C.3   491  ILE491      0.0001
    160  N         25.4710   30.5750  195.5680 N.3   494  GLY494     -0.1210
    161  CA        26.1160   31.8750  195.6450 C.3   494  GLY494      0.1956
    162  C         27.2800   31.9680  196.6130 C.2   494  GLY494      0.2611
    163  O         28.2950   32.6000  196.3120 O.2   494  GLY494     -0.2717
    164  N         27.1420   31.3340  197.7720 N.am  495  ALA495     -0.1979
    165  CA        28.1820   31.3730  198.7940 C.3   495  ALA495      0.1597
    166  C         29.5820   30.9800  198.3070 C.2   495  ALA495      0.2287
    167  O         30.5500   31.7120  198.5460 O.2   495  ALA495     -0.2864
    168  CB        27.7730   30.5070  199.9840 C.3   495  ALA495      0.0319
    169  N         31.0200   33.7370  196.0180 N.3   498  SER498     -0.1202
    170  CA        31.3420   34.9140  196.8120 C.3   498  SER498      0.2020
    171  C         32.5860   34.7650  197.6520 C.2   498  SER498      0.2618
    172  O         33.5600   35.4880  197.4480 O.2   498  SER498     -0.2717
    173  CB        30.1730   35.2780  197.7120 C.3   498  SER498      0.2103
    174  OG        29.0330   35.5280  196.9130 O.3   498  SER498     -0.2182
    175  N         32.5540   33.8190  198.5920 N.am  499  LEU499     -0.1979
    176  CA        33.6780   33.5940  199.4900 C.3   499  LEU499      0.1596
    177  C         34.9800   33.2730  198.7610 C.2   499  LEU499      0.2287
    178  O         36.0500   33.7260  199.1720 O.2   499  LEU499     -0.2864
    179  CB        33.3300   32.4980  200.4900 C.3   499  LEU499      0.0297
    180  CG        32.1700   32.8090  201.4510 C.3   499  LEU499      0.0022
    181  CD1       32.0890   31.6920  202.4710 C.3   499  LEU499      0.0001
    182  CD2       32.3850   34.1570  202.1600 C.3   499  LEU499      0.0001
@<TRIPOS>BOND
     1    88    89    1
     2    99   100    1
     3    90    89    1
     4    90    91    2
     5    89    92    1
     6    92    93    1
     7   100   101    1
     8   100   103    1
     9   107   101   am
    10   107   108    1
    11   109   110    2
    12   109   108    1
    13   101   102    2
    14   103   104    1
    15   108   111    1
    16   119   120    1
    17   111   112    1
    18    93    95   ar
    19    93    94   ar
    20    95    97   ar
    21   121   120    1
    22   121   122    2
    23    94    96   ar
    24   120   123    1
    25   104   105    1
    26   104   106    1
    27    97    98   ar
    28   112   113   ar
    29   112   114   ar
    30   113   115   ar
    31   125   124   ar
    32   125   127   ar
    33   114   116   ar
    34    96    98   ar
    35   123   124    1
    36   151   150    1
    37   124   126   ar
    38   127   128   ar
    39   115   117   ar
    40   150   149    1
    41   116   117   ar
    42   126   128   ar
    43   126   129   ar
    44   128   130   ar
    45   117   118    1
    46   160   161    1
    47   161   162    1
    48   129   131   ar
    49   130   132   ar
    50   149   148    1
    51   169   170    1
    52   145   144    1
    53   145   148    1
    54   145   146    1
    55   163   162    2
    56   162   164   am
    57   147   146    2
    58   170   171    1
    59   170   173    1
    60   131   132   ar
    61   174   173    1
    62   146   152   am
    63    46    45    1
    64   172   171    2
    65   171   175   am
    66   164   165    1
    67   139   141   ar
    68   139   138   ar
    69   137   138    1
    70   137   134    1
    71   152   153    1
    72   141   143   ar
    73    27    26    2
    74   166   167    2
    75   166   165    1
    76   138   140   ar
    77    45    44   ar
    78    45    43   ar
    79   175   176    1
    80   177   178    2
    81   177   176    1
    82   165   168    1
    83   154   155    2
    84   154   153    1
    85   134   135    1
    86   134   133    1
    87    44    42   ar
    88    43    41   ar
    89   153   156    1
    90   143   142   ar
    91   140   142   ar
    92   135   136    2
    93    26    25    1
    94   176   179    1
    95    60    59    1
    96    42    40   ar
    97    41    40   ar
    98   179   180    1
    99   156   157    1
   100   156   158    1
   101    25    28    1
   102    25    24    1
   103    61    59    1
   104    40    39    1
   105   157   159    1
   106    59    58    1
   107    29    28    1
   108    29    30    1
   109    33    32    1
   110   180   182    1
   111   180   181    1
   112    30    31    1
   113    32    31    2
   114    32    34    1
   115    53    51    1
   116    39    36    1
   117    58    55    1
   118    36    37    1
   119    36    35    1
   120    55    56    1
   121    55    54    1
   122    47    37   am
   123    47    48    1
   124    51    48    1
   125    51    52    1
   126    37    38    2
   127    48    49    1
   128    20    19    2
   129    57    56    2
   130    56    62   am
   131    62    63    1
   132    19    18    1
   133    49    50    2
   134    79    78    1
   135    63    66    1
   136    63    64    1
   137    22    21    1
   138    66    67    1
   139    18    21    1
   140    18    17    1
   141    78    76   ar
   142    78    77   ar
   143    64    65    2
   144    21    23    1
   145    86    85    1
   146    16    15    1
   147    76    74   ar
   148    77    75   ar
   149    12    11    2
   150    74    73   ar
   151    75    73   ar
   152    85    87    1
   153    85    84    1
   154    84    81    1
   155    15    14    1
   156    73    72    1
   157    11    10    1
   158    14    13    1
   159     7     6    1
   160    68    69    1
   161    10    13    1
   162    10     9    1
   163    81    82    1
   164    81    80    1
   165    72    69    1
   166    82    83    2
   167    69    70    1
   168     6     5    1
   169     6     8    1
   170     5     2    1
   171    70    71    2
   172     2     1    1
   173     2     3    1
   174     3     4    2
