@<TRIPOS>MOLECULE
tmp/1ht8B05.pdb
 163 156 0 0 0
SMALL
GASTEIGER

@<TRIPOS>ATOM
      1  N         22.0600   27.8200  211.9400 N.3    61  LEU61      -0.1245
      2  CA        22.7090   29.1230  211.8530 C.3    61  LEU61       0.1561
      3  C         21.7850   30.3110  212.0900 C.2    61  LEU61       0.2260
      4  O         22.2580   31.4140  212.3650 O.2    61  LEU61      -0.2867
      5  CB        23.4040   29.2720  210.4940 C.3    61  LEU61       0.0270
      6  CG        24.7350   28.5240  210.3270 C.3    61  LEU61       0.0019
      7  CD1       25.0780   28.3690  208.8540 C.3    61  LEU61       0.0001
      8  CD2       25.8320   29.2810  211.0590 C.3    61  LEU61       0.0001
      9  N         33.7410   27.2260  206.7340 N.3    84  VAL84      -0.1245
     10  CA        32.8660   27.7930  205.7130 C.3    84  VAL84       0.1561
     11  C         33.7150   28.1460  204.4930 C.2    84  VAL84       0.2260
     12  O         33.4450   27.6950  203.3770 O.2    84  VAL84      -0.2867
     13  CB        32.1660   29.0720  206.2340 C.3    84  VAL84       0.0252
     14  CG1       31.3470   29.7150  205.1370 C.3    84  VAL84       0.0019
     15  CG2       31.2690   28.7260  207.3880 C.3    84  VAL84       0.0019
     16  N         33.0520   25.8630  201.1320 N.3    88  ARG88      -0.1245
     17  CA        32.3850   26.6660  200.1100 C.3    88  ARG88       0.1563
     18  C         33.3200   26.7820  198.8850 C.2    88  ARG88       0.2260
     19  O         32.9210   26.5350  197.7400 O.2    88  ARG88      -0.2867
     20  CB        32.1040   28.0610  200.6870 C.3    88  ARG88       0.0307
     21  CG        30.6470   28.4840  200.9420 C.3    88  ARG88       0.0489
     22  CD        29.6190   27.3690  201.0920 C.3    88  ARG88       0.2205
     23  NE        28.3890   27.8880  201.7030 N.pl3  88  ARG88      -0.0865
     24  CZ        27.1810   27.3340  201.5940 C.cat  88  ARG88       0.5346
     25  NH1       27.0100   26.2310  200.8820 N.pl3  88  ARG88       0.1354
     26  NH2       26.1400   27.8690  202.2210 N.pl3  88  ARG88       0.1354
     27  N         28.2400   43.1310  204.3680 N.3   316  TYR316     -0.1227
     28  CA        27.4840   42.8210  203.1610 C.3   316  TYR316      0.1736
     29  C         26.9200   41.4020  203.2000 C.2   316  TYR316      0.2595
     30  O         25.7050   41.2060  203.1880 O.2   316  TYR316     -0.2718
     31  CB        28.4020   42.9870  201.9610 C.3   316  TYR316      0.0548
     32  CG        27.7620   42.7650  200.6180 C.ar  316  TYR316     -0.0200
     33  CD1       27.1220   43.8030  199.9550 C.ar  316  TYR316     -0.0009
     34  CD2       27.8720   41.5340  199.9720 C.ar  316  TYR316     -0.0009
     35  CE1       26.6160   43.6270  198.6720 C.ar  316  TYR316      0.0417
     36  CE2       27.3760   41.3430  198.6980 C.ar  316  TYR316      0.0417
     37  CZ        26.7530   42.3940  198.0450 C.ar  316  TYR316      0.1957
     38  OH        26.3180   42.2270  196.7490 O.3   316  TYR316     -0.2866
     39  N         27.8050   40.4130  203.2460 N.am  317  VAL317     -0.1980
     40  CA        27.3750   39.0250  203.2930 C.3   317  VAL317      0.1595
     41  C         26.6080   38.7300  204.5930 C.2   317  VAL317      0.2287
     42  O         25.6400   37.9670  204.5930 O.2   317  VAL317     -0.2864
     43  CB        28.5880   38.0710  203.1590 C.3   317  VAL317      0.0276
     44  CG1       28.1970   36.6540  203.5540 C.3   317  VAL317      0.0022
     45  CG2       29.1040   38.0920  201.7220 C.3   317  VAL317      0.0022
     46  N         23.0760   39.5800  204.0330 N.3   320  LEU320     -0.1231
     47  CA        22.4150   38.6050  203.1780 C.3   320  LEU320      0.1693
     48  C         22.1140   37.2760  203.8640 C.2   320  LEU320      0.2592
     49  O         20.9980   36.7700  203.7700 O.2   320  LEU320     -0.2718
     50  CB        23.2620   38.3220  201.9400 C.3   320  LEU320      0.0284
     51  CG        23.3210   39.3720  200.8450 C.3   320  LEU320      0.0019
     52  CD1       24.3020   38.9150  199.7770 C.3   320  LEU320      0.0001
     53  CD2       21.9290   39.5700  200.2590 C.3   320  LEU320      0.0001
     54  N         23.1090   36.7160  204.5480 N.am  321  SER321     -0.1952
     55  CA        22.9600   35.4180  205.2000 C.3   321  SER321      0.1924
     56  C         21.9650   35.3870  206.3430 C.2   321  SER321      0.2314
     57  O         21.2550   34.3990  206.5190 O.2   321  SER321     -0.2863
     58  CB        24.3110   34.9280  205.7250 C.3   321  SER321      0.2116
     59  OG        24.6360   35.5550  206.9540 O.3   321  SER321     -0.2180
     60  N         22.7300   35.0920  209.2720 N.3   323  TYR323     -0.1241
     61  CA        23.2800   34.1350  210.2320 C.3   323  TYR323      0.1605
     62  C         23.5590   34.7780  211.5760 C.2   323  TYR323      0.2264
     63  O         23.8620   35.9710  211.6570 O.2   323  TYR323     -0.2867
     64  CB        24.5940   33.5440  209.7170 C.3   323  TYR323      0.0534
     65  CG        24.4850   32.7170  208.4520 C.ar  323  TYR323     -0.0201
     66  CD1       25.6310   32.1700  207.8600 C.ar  323  TYR323     -0.0009
     67  CD2       23.2510   32.4790  207.8440 C.ar  323  TYR323     -0.0009
     68  CE1       25.5530   31.4080  206.6930 C.ar  323  TYR323      0.0417
     69  CE2       23.1630   31.7200  206.6760 C.ar  323  TYR323      0.0417
     70  CZ        24.3190   31.1880  206.1050 C.ar  323  TYR323      0.1957
     71  OH        24.2440   30.4570  204.9430 O.3   323  TYR323     -0.2866
     72  N         30.3620   36.3740  210.7090 N.3   327  LEU327     -0.1245
     73  CA        31.3500   36.1070  209.6780 C.3   327  LEU327      0.1561
     74  C         32.6010   36.9210  209.9710 C.2   327  LEU327      0.2260
     75  O         32.5390   37.9570  210.6330 O.2   327  LEU327     -0.2867
     76  CB        30.7830   36.4610  208.3060 C.3   327  LEU327      0.0270
     77  CG        29.5620   35.6240  207.9320 C.3   327  LEU327      0.0019
     78  CD1       29.0400   36.0820  206.5930 C.3   327  LEU327      0.0001
     79  CD2       29.9390   34.1450  207.8910 C.3   327  LEU327      0.0001
     80  N         23.5660   34.5740  188.0040 N.3   352  LEU352     -0.1231
     81  CA        23.0720   34.4870  189.3750 C.3   352  LEU352      0.1693
     82  C         23.0270   35.8330  190.0700 C.2   352  LEU352      0.2592
     83  O         22.1160   36.0970  190.8500 O.2   352  LEU352     -0.2718
     84  CB        23.9380   33.5060  190.1820 C.3   352  LEU352      0.0284
     85  CG        23.7240   33.3270  191.6940 C.3   352  LEU352      0.0019
     86  CD1       24.3140   31.9970  192.1450 C.3   352  LEU352      0.0001
     87  CD2       24.3790   34.4740  192.4520 C.3   352  LEU352      0.0001
     88  N         23.9920   36.6950  189.7770 N.am  353  TYR353     -0.1976
     89  CA        24.0360   38.0030  190.4140 C.3   353  TYR353      0.1639
     90  C         23.1200   39.0820  189.8530 C.2   353  TYR353      0.2290
     91  O         23.2280   40.2400  190.2500 O.2   353  TYR353     -0.2864
     92  CB        25.4660   38.5290  190.4400 C.3   353  TYR353      0.0560
     93  CG        25.9280   38.8900  191.8320 C.ar  353  TYR353     -0.0198
     94  CD1       27.1490   38.4330  192.3150 C.ar  353  TYR353     -0.0009
     95  CD2       25.1420   39.6900  192.6700 C.ar  353  TYR353     -0.0009
     96  CE1       27.5820   38.7580  193.5930 C.ar  353  TYR353      0.0417
     97  CE2       25.5670   40.0240  193.9520 C.ar  353  TYR353      0.0417
     98  CZ        26.7890   39.5530  194.4060 C.ar  353  TYR353      0.1957
     99  OH        27.2370   39.8570  195.6730 O.3   353  TYR353     -0.2866
    100  N         20.4110   40.8370  190.3720 N.3   355  TRP355     -0.1241
    101  CA        19.4320   41.0660  191.4260 C.3   355  TRP355      0.1605
    102  C         18.5490   42.2870  191.2330 C.2   355  TRP355      0.2264
    103  O         18.3220   43.0500  192.1740 O.2   355  TRP355     -0.2867
    104  CB        20.1390   41.1670  192.7790 C.3   355  TRP355      0.0550
    105  CG        20.8600   39.9300  193.1640 C.ar  355  TRP355      0.0003
    106  CD1       20.7830   38.7140  192.5560 C.ar  355  TRP355      0.0946
    107  CD2       21.7260   39.7630  194.2910 C.ar  355  TRP355      0.0152
    108  NE1       21.5430   37.7920  193.2360 N.ar  355  TRP355     -0.2442
    109  CE2       22.1320   38.4100  194.3080 C.ar  355  TRP355      0.0810
    110  CE3       22.1950   40.6250  195.2960 C.ar  355  TRP355      0.0012
    111  CZ2       22.9830   37.8960  195.2880 C.ar  355  TRP355      0.0191
    112  CZ3       23.0440   40.1100  196.2720 C.ar  355  TRP355      0.0001
    113  CH2       23.4270   38.7580  196.2590 C.ar  355  TRP355      0.0015
    114  N         16.0040   35.1970  199.5950 N.3   486  PHE486     -0.1241
    115  CA        15.9410   34.2790  198.4620 C.3   486  PHE486      0.1605
    116  C         16.0010   32.7950  198.8380 C.2   486  PHE486      0.2264
    117  O         16.0430   32.4450  200.0160 O.2   486  PHE486     -0.2867
    118  CB        17.0080   34.6340  197.4070 C.3   486  PHE486      0.0534
    119  CG        18.3660   34.9750  197.9720 C.ar  486  PHE486     -0.0203
    120  CD1       19.1340   35.9800  197.3840 C.ar  486  PHE486     -0.0042
    121  CD2       18.8990   34.2750  199.0520 C.ar  486  PHE486     -0.0042
    122  CE1       20.4130   36.2850  197.8590 C.ar  486  PHE486     -0.0003
    123  CE2       20.1850   34.5770  199.5350 C.ar  486  PHE486     -0.0003
    124  CZ        20.9370   35.5830  198.9340 C.ar  486  PHE486     -0.0000
    125  N         20.2640   29.9300  195.7300 N.3   490  MET490     -0.1230
    126  CA        20.9650   31.2000  195.5870 C.3   490  MET490      0.1702
    127  C         22.1490   31.2190  196.5510 C.2   490  MET490      0.2592
    128  O         23.2190   31.7060  196.2150 O.2   490  MET490     -0.2718
    129  CB        20.0210   32.3690  195.8890 C.3   490  MET490      0.0401
    130  CG        20.5510   33.7350  195.4780 C.3   490  MET490      0.0596
    131  SD        20.7670   33.9250  193.6970 S.3   490  MET490     -0.1393
    132  CE        19.1750   34.5240  193.1860 C.3   490  MET490      0.0692
    133  N         21.9600   30.6670  197.7450 N.am  491  ILE491     -0.1980
    134  CA        23.0200   30.6370  198.7420 C.3   491  ILE491      0.1595
    135  C         24.0480   29.5440  198.4650 C.2   491  ILE491      0.2287
    136  O         25.2500   29.8050  198.4350 O.2   491  ILE491     -0.2864
    137  CB        22.4420   30.4290  200.1640 C.3   491  ILE491      0.0276
    138  CG1       21.5530   31.6130  200.5420 C.3   491  ILE491      0.0022
    139  CG2       23.5720   30.2900  201.1810 C.3   491  ILE491      0.0022
    140  CD1       20.9430   31.4980  201.9200 C.3   491  ILE491      0.0001
    141  N         25.7480   30.6930  195.1920 N.3   494  GLY494     -0.1210
    142  CA        26.3910   31.9930  195.2860 C.3   494  GLY494      0.1956
    143  C         27.5450   32.0710  196.2760 C.2   494  GLY494      0.2611
    144  O         28.5510   32.7330  196.0190 O.2   494  GLY494     -0.2717
    145  N         27.4030   31.4030  197.4140 N.am  495  ALA495     -0.1979
    146  CA        28.4380   31.4050  198.4380 C.3   495  ALA495      0.1597
    147  C         29.8040   30.9730  197.8920 C.2   495  ALA495      0.2287
    148  O         30.7960   31.6780  198.0760 O.2   495  ALA495     -0.2864
    149  CB        28.0240   30.5050  199.5990 C.3   495  ALA495      0.0319
    150  N         31.1970   33.6890  195.6400 N.3   498  SER498     -0.1202
    151  CA        31.5600   34.8710  196.4130 C.3   498  SER498      0.2020
    152  C         32.8150   34.6830  197.2480 C.2   498  SER498      0.2618
    153  O         33.8070   35.3760  197.0500 O.2   498  SER498     -0.2717
    154  CB        30.4060   35.2870  197.3260 C.3   498  SER498      0.2103
    155  OG        29.2470   35.5540  196.5610 O.3   498  SER498     -0.2182
    156  N         32.7690   33.7390  198.1810 N.am  499  LEU499     -0.1979
    157  CA        33.9000   33.4990  199.0590 C.3   499  LEU499      0.1596
    158  C         35.1950   33.2230  198.3030 C.2   499  LEU499      0.2287
    159  O         36.2550   33.7380  198.6830 O.2   499  LEU499     -0.2864
    160  CB        33.5630   32.3700  200.0390 C.3   499  LEU499      0.0297
    161  CG        32.3590   32.7000  200.9430 C.3   499  LEU499      0.0022
    162  CD1       32.1480   31.5690  201.9400 C.3   499  LEU499      0.0001
    163  CD2       32.5870   34.0260  201.6790 C.3   499  LEU499      0.0001
@<TRIPOS>BOND
     1    80    81    1
     2    81    82    1
     3    81    84    1
     4    88    82   am
     5    88    89    1
     6    90    91    2
     7    90    89    1
     8    82    83    2
     9    84    85    1
    10   100   101    1
    11    89    92    1
    12    92    93    1
    13   102   101    1
    14   102   103    2
    15   101   104    1
    16    85    86    1
    17    85    87    1
    18    93    94   ar
    19    93    95   ar
    20    94    96   ar
    21   106   105   ar
    22   106   108   ar
    23    95    97   ar
    24   104   105    1
    25   105   107   ar
    26   132   131    1
    27   108   109   ar
    28    96    98   ar
    29   131   130    1
    30    97    98   ar
    31   107   109   ar
    32   107   110   ar
    33   109   111   ar
    34    98    99    1
    35   141   142    1
    36   142   143    1
    37   111   113   ar
    38   110   112   ar
    39   130   129    1
    40   126   125    1
    41   126   129    1
    42   126   127    1
    43   150   151    1
    44   144   143    2
    45   128   127    2
    46   113   112   ar
    47   143   145   am
    48   151   152    1
    49   151   154    1
    50   127   133   am
    51   155   154    1
    52    38    37    1
    53   153   152    2
    54   152   156   am
    55   120   122   ar
    56   120   119   ar
    57   118   119    1
    58   118   115    1
    59   145   146    1
    60    19    18    2
    61   133   134    1
    62   122   124   ar
    63   147   148    2
    64   147   146    1
    65   119   121   ar
    66    37    35   ar
    67    37    36   ar
    68   156   157    1
    69   158   159    2
    70   158   157    1
    71   136   135    2
    72   146   149    1
    73   115   116    1
    74   115   114    1
    75   135   134    1
    76    35    33   ar
    77    36    34   ar
    78   134   137    1
    79   116   117    2
    80    18    17    1
    81   124   123   ar
    82   121   123   ar
    83   157   160    1
    84    52    51    1
    85    33    32   ar
    86    34    32   ar
    87   160   161    1
    88    17    20    1
    89    17    16    1
    90   137   138    1
    91   137   139    1
    92    53    51    1
    93   138   140    1
    94    32    31    1
    95    20    21    1
    96    51    50    1
    97    25    24    1
    98    21    22    1
    99   161   163    1
   100   161   162    1
   101    22    23    1
   102    24    23    2
   103    24    26    1
   104    45    43    1
   105    50    47    1
   106    31    28    1
   107    43    40    1
   108    43    44    1
   109    28    29    1
   110    28    27    1
   111    47    48    1
   112    47    46    1
   113    30    29    2
   114    29    39   am
   115    39    40    1
   116    40    41    1
   117    12    11    2
   118    49    48    2
   119    48    54   am
   120    11    10    1
   121    54    55    1
   122    42    41    2
   123    71    70    1
   124    14    13    1
   125    55    58    1
   126    55    56    1
   127    10    13    1
   128    10     9    1
   129    58    59    1
   130    70    69   ar
   131    70    68   ar
   132    13    15    1
   133    56    57    2
   134    78    77    1
   135    69    67   ar
   136    68    66   ar
   137    67    65   ar
   138    66    65   ar
   139    79    77    1
   140    77    76    1
   141    76    73    1
   142    65    64    1
   143     7     6    1
   144    60    61    1
   145    73    74    1
   146    73    72    1
   147    64    61    1
   148    74    75    2
   149    61    62    1
   150     6     5    1
   151     6     8    1
   152     5     2    1
   153    62    63    2
   154     2     1    1
   155     2     3    1
   156     3     4    2
