@<TRIPOS>MOLECULE
tmp/1hteB01.pdb
 81 74 0 0 0
SMALL
GASTEIGER

@<TRIPOS>ATOM
      1  N          9.3370   35.3600   -1.8510 N.3     8  ARG8       -0.1245
      2  CA         9.9490   33.9940   -1.8360 C.3     8  ARG8        0.1563
      3  C         10.8120   33.9410   -3.1100 C.2     8  ARG8        0.2260
      4  O         10.3360   34.4160   -4.1500 O.2     8  ARG8       -0.2867
      5  CB         8.9360   32.8630   -1.9340 C.3     8  ARG8        0.0307
      6  CG         8.6570   32.0390   -0.7280 C.3     8  ARG8        0.0489
      7  CD         7.2860   31.4540   -0.7170 C.3     8  ARG8        0.2205
      8  NE         6.7300   31.4880    0.6760 N.pl3   8  ARG8       -0.0865
      9  CZ         5.4100   31.6660    0.8650 C.cat   8  ARG8        0.5346
     10  NH1        4.8320   32.8740    0.6920 N.pl3   8  ARG8        0.1354
     11  NH2        4.6300   30.6420    1.2650 N.pl3   8  ARG8        0.1354
     12  N         11.5240   32.2080   -5.8400 N.3    10  LEU10      -0.1245
     13  CA        11.2650   31.1330   -6.8410 C.3    10  LEU10       0.1561
     14  C         12.0720   31.4440   -8.0700 C.2    10  LEU10       0.2260
     15  O         12.3890   32.6390   -8.3160 O.2    10  LEU10      -0.2867
     16  CB         9.7540   30.9080   -7.0400 C.3    10  LEU10       0.0270
     17  CG         9.1140   30.5160   -5.6720 C.3    10  LEU10       0.0019
     18  CD1        7.6800   30.8540   -5.6210 C.3    10  LEU10       0.0001
     19  CD2        9.3950   29.0370   -5.5080 C.3    10  LEU10       0.0001
     20  N          9.0990   25.7170  -11.0510 N.3    21  GLU21      -0.1301
     21  CA         9.5850   26.7810  -10.1650 C.3    21  GLU21       0.1252
     22  C         10.2210   25.9560   -8.9830 C.3    21  GLU21       0.2009
     23  O          9.4920   25.0540   -8.5420 O.3    21  GLU21      -0.2188
     24  CB         8.6840   27.6890   -9.4960 C.3    21  GLU21       0.0335
     25  CG         7.6600   28.6160   -9.9340 C.3    21  GLU21       0.1156
     26  CD         6.3320   28.6330   -9.1800 C.2    21  GLU21       0.3649
     27  OE1        6.3830   28.0340   -8.0600 O.co2  21  GLU21      -0.2457
     28  OE2        5.3100   29.1540   -9.6580 O.co2  21  GLU21      -0.2457
     29  N         12.5200   26.6040   -5.2590 N.3    23  LEU23      -0.1245
     30  CA        12.9560   27.6070   -4.2800 C.3    23  LEU23       0.1561
     31  C         14.4580   27.5620   -4.0210 C.2    23  LEU23       0.2260
     32  O         15.0120   26.4610   -3.7320 O.2    23  LEU23      -0.2867
     33  CB        12.0980   27.3640   -3.0160 C.3    23  LEU23       0.0270
     34  CG        12.1400   28.3400   -1.8860 C.3    23  LEU23       0.0019
     35  CD1       11.1920   29.5110   -1.9820 C.3    23  LEU23       0.0001
     36  CD2       11.8130   27.5290   -0.5810 C.3    23  LEU23       0.0001
     37  N         17.1870   27.8280   -1.6330 N.3    25  ASP25      -0.1239
     38  CA        17.1380   27.2900   -0.2990 C.3    25  ASP25       0.1674
     39  C         18.4870   26.9100    0.2620 C.2    25  ASP25       0.2266
     40  O         19.1060   25.8950   -0.1440 O.2    25  ASP25      -0.2867
     41  CB        16.1100   26.0880   -0.3730 C.3    25  ASP25       0.1410
     42  CG        15.6040   25.7650    1.0030 C.2    25  ASP25       0.3668
     43  OD1       16.1760   26.2760    2.0250 O.co2  25  ASP25      -0.2456
     44  OD2       14.7270   24.9700    1.1630 O.co2  25  ASP25      -0.2456
     45  N         11.7650   19.8930    9.2530 N.3    50  ILE50      -0.1245
     46  CA        11.0650   20.4380   10.4070 C.3    50  ILE50       0.1561
     47  C          9.9860   19.6010   11.0420 C.2    50  ILE50       0.2260
     48  O          9.7230   19.6870   12.2750 O.2    50  ILE50      -0.2867
     49  CB        10.4970   21.9040   10.0190 C.3    50  ILE50       0.0252
     50  CG1       10.7080   22.8220   11.2510 C.3    50  ILE50       0.0019
     51  CG2        9.0660   21.8620    9.4800 C.3    50  ILE50       0.0019
     52  CD1       11.0710   24.2840   10.9570 C.3    50  ILE50       0.0001
     53  N          7.6820   16.7650   -0.9770 N.3    80  THR80      -0.1204
     54  CA         8.0310   18.0980   -0.3370 C.3    80  THR80       0.1979
     55  C          6.8890   19.0130   -0.6050 C.2    80  THR80       0.2460
     56  O          6.1240   18.7920   -1.6120 O.2    80  THR80      -0.2732
     57  CB         9.4000   18.4420   -1.0290 C.3    80  THR80       0.1783
     58  OG1        9.7030   19.8130   -0.6580 O.3    80  THR80      -0.2211
     59  CG2        9.3810   18.1430   -2.5450 C.3    80  THR80       0.0376
     60  N          6.6820   20.0370    0.2320 N.am   81  PRO81      -0.2717
     61  CA         5.6440   21.0540    0.0150 C.3    81  PRO81       0.1535
     62  C          5.8800   21.7150   -1.3420 C.2    81  PRO81       0.2598
     63  O          4.8810   21.9800   -2.0390 O.2    81  PRO81      -0.2715
     64  CB         5.7550   22.0110    1.1700 C.3    81  PRO81       0.0310
     65  CG         6.5170   21.2740    2.2550 C.3    81  PRO81       0.0237
     66  CD         7.4580   20.3380    1.4660 C.3    81  PRO81       0.0939
     67  N          7.1290   21.9270   -1.7050 N.am   82  VAL82      -0.1978
     68  CA         7.6780   22.6020   -2.8600 C.3    82  VAL82       0.1596
     69  C          9.0090   22.0110   -3.3310 C.2    82  VAL82       0.2287
     70  O          9.6650   21.2670   -2.5790 O.2    82  VAL82      -0.2864
     71  CB         7.8840   24.1170   -2.4690 C.3    82  VAL82       0.0276
     72  CG1        8.8780   24.3350   -1.3280 C.3    82  VAL82       0.0022
     73  CG2        8.2640   24.9160   -3.7050 C.3    82  VAL82       0.0022
     74  N         12.7250   22.0600   -3.7500 N.3    84  ILE84      -0.1245
     75  CA        13.8780   22.6600   -3.0550 C.3    84  ILE84       0.1561
     76  C         15.1340   22.5510   -3.9150 C.2    84  ILE84       0.2260
     77  O         15.3640   21.4660   -4.4910 O.2    84  ILE84      -0.2867
     78  CB        13.9860   22.0000   -1.6380 C.3    84  ILE84       0.0252
     79  CG1       13.0250   22.6780   -0.6640 C.3    84  ILE84       0.0019
     80  CG2       15.3900   21.9720   -0.9980 C.3    84  ILE84       0.0019
     81  CD1       11.6820   21.9420   -0.4540 C.3    84  ILE84       0.0001
@<TRIPOS>BOND
     1    20    21    1
     2    21    24    1
     3    21    22    1
     4    25    24    1
     5    25    26    1
     6    28    26   ar
     7    26    27   ar
     8    22    23    1
     9    15    14    2
    10    14    13    1
    11    16    13    1
    12    16    17    1
    13    13    12    1
    14    17    18    1
    15    17    19    1
    16    29    30    1
    17    77    76    2
    18    30    31    1
    19    30    33    1
    20     4     3    2
    21    31    32    2
    22    76    75    1
    23    74    75    1
    24    73    71    1
    25    69    68    1
    26    69    70    2
    27     3     2    1
    28    75    78    1
    29    33    34    1
    30    68    71    1
    31    68    67    1
    32    59    57    1
    33    71    72    1
    34    63    62    2
    35    35    34    1
    36     5     2    1
    37     5     6    1
    38    34    36    1
    39     1     2    1
    40    67    62   am
    41    78    80    1
    42    78    79    1
    43    37    38    1
    44    56    55    2
    45    62    61    1
    46    57    58    1
    47    57    54    1
    48    53    54    1
    49     6     7    1
    50     7     8    1
    51    79    81    1
    52    55    54    1
    53    55    60   am
    54    41    38    1
    55    41    42    1
    56    38    39    1
    57    40    39    2
    58    61    60    1
    59    61    64    1
    60    60    66    1
    61     8     9    2
    62    10     9    1
    63     9    11    1
    64    42    44   ar
    65    42    43   ar
    66    64    65    1
    67    66    65    1
    68    45    46    1
    69    51    49    1
    70    49    46    1
    71    49    50    1
    72    46    47    1
    73    52    50    1
    74    47    48    2
