@<TRIPOS>MOLECULE
tmp/1hteB00.pdb
 100 95 0 0 0
SMALL
GASTEIGER

@<TRIPOS>ATOM
      1  N         17.1870   27.8280   -1.6330 N.3    25  ASP25      -0.1239
      2  CA        17.1380   27.2900   -0.2990 C.3    25  ASP25       0.1674
      3  C         18.4870   26.9100    0.2620 C.2    25  ASP25       0.2266
      4  O         19.1060   25.8950   -0.1440 O.2    25  ASP25      -0.2867
      5  CB        16.1100   26.0880   -0.3730 C.3    25  ASP25       0.1410
      6  CG        15.6040   25.7650    1.0030 C.2    25  ASP25       0.3668
      7  OD1       16.1760   26.2760    2.0250 O.co2  25  ASP25      -0.2456
      8  OD2       14.7270   24.9700    1.1630 O.co2  25  ASP25      -0.2456
      9  N         18.9900   26.7130    3.5430 N.3    27  GLY27      -0.1210
     10  CA        18.7800   25.9820    4.7950 C.3    27  GLY27       0.1956
     11  C         18.8700   24.5160    4.4590 C.2    27  GLY27       0.2612
     12  O         18.8740   23.6770    5.3840 O.2    27  GLY27      -0.2717
     13  N         18.9050   24.2230    3.1540 N.am   28  ALA28      -0.1965
     14  CA        18.9040   22.8720    2.6990 C.3    28  ALA28       0.1728
     15  C         20.2250   22.3550    2.1910 C.2    28  ALA28       0.2616
     16  O         20.6970   22.8240    1.1170 O.2    28  ALA28      -0.2715
     17  CB        17.8090   22.6200    1.5840 C.3    28  ALA28       0.0334
     18  N         20.6220   21.1890    2.7220 N.am   29  ASP29      -0.1957
     19  CA        21.7260   20.4180    2.1420 C.3    29  ASP29       0.1840
     20  C         21.4830   20.0010    0.7050 C.2    29  ASP29       0.2622
     21  O         22.3970   20.1240   -0.1790 O.2    29  ASP29      -0.2715
     22  CB        21.9700   19.1700    3.0050 C.3    29  ASP29       0.1450
     23  CG        22.3090   19.6220    4.4320 C.2    29  ASP29       0.3671
     24  OD1       22.4490   20.8820    4.5850 O.co2  29  ASP29      -0.2456
     25  OD2       22.3660   18.7720    5.3200 O.co2  29  ASP29      -0.2456
     26  N         20.3310   19.3310    0.4950 N.am   30  ASP30      -0.1971
     27  CA        20.0890   18.7320   -0.8310 C.3    30  ASP30       0.1709
     28  C         19.0150   19.4130   -1.6390 C.2    30  ASP30       0.2293
     29  O         18.2240   20.2350   -1.1690 O.2    30  ASP30      -0.2864
     30  CB        19.7700   17.2580   -0.6280 C.3    30  ASP30       0.1436
     31  CG        20.7800   16.5840    0.2890 C.2    30  ASP30       0.3671
     32  OD1       21.9640   16.4970   -0.2040 O.co2  30  ASP30      -0.2456
     33  OD2       20.4320   16.1460    1.3830 O.co2  30  ASP30      -0.2456
     34  N         15.6310   18.6840   -3.3930 N.3    32  VAL32      -0.1245
     35  CA        14.4710   17.7980   -3.1920 C.3    32  VAL32       0.1561
     36  C         13.3640   18.2670   -4.1390 C.2    32  VAL32       0.2260
     37  O         12.9630   19.4440   -3.9980 O.2    32  VAL32      -0.2867
     38  CB        14.0270   17.9060   -1.7110 C.3    32  VAL32       0.0252
     39  CG1       13.1160   16.8200   -1.2480 C.3    32  VAL32       0.0019
     40  CG2       15.2080   18.1110   -0.7560 C.3    32  VAL32       0.0019
     41  N         17.2570    7.1960    0.6480 N.3    45  LYS45      -0.1231
     42  CA        17.7530    8.1830    1.5380 C.3    45  LYS45       0.1693
     43  C         16.7210    8.5720    2.5850 C.2    45  LYS45       0.2592
     44  O         15.5710    8.8250    2.1700 O.2    45  LYS45      -0.2718
     45  CB        18.1480    9.4910    0.7700 C.3    45  LYS45       0.0285
     46  CG        19.1520   10.3110    1.5750 C.3    45  LYS45       0.0035
     47  CD        20.1540   11.0500    0.7130 C.3    45  LYS45       0.0206
     48  CE        21.2330   11.7500    1.4860 C.3    45  LYS45       0.1093
     49  NZ        21.6090   13.0730    0.9080 N.3    45  LYS45      -0.1314
     50  N         17.1410    8.5990    3.8200 N.am   46  MET46      -0.1965
     51  CA        16.4290    9.2390    4.9250 C.3    46  MET46       0.1736
     52  C         16.8630   10.7410    4.8300 C.2    46  MET46       0.2616
     53  O         18.0710   10.9220    4.5400 O.2    46  MET46      -0.2715
     54  CB        16.8220    8.7430    6.2930 C.3    46  MET46       0.0427
     55  CG        15.9970    7.5800    6.7660 C.3    46  MET46       0.0599
     56  SD        14.2510    8.2160    7.0080 S.3    46  MET46      -0.1393
     57  CE        14.2240    8.0890    8.8310 C.3    46  MET46       0.0692
     58  N         15.9970   11.6640    4.9820 N.am   47  ILE47      -0.1963
     59  CA        16.1700   13.0870    5.0950 C.3    47  ILE47       0.1727
     60  C         15.0440   13.6280    6.0490 C.2    47  ILE47       0.2617
     61  O         13.8630   13.4510    5.7640 O.2    47  ILE47      -0.2715
     62  CB        16.1690   13.9490    3.8020 C.3    47  ILE47       0.0290
     63  CG1       14.7330   13.8890    3.1580 C.3    47  ILE47       0.0022
     64  CG2       17.2400   13.7000    2.7600 C.3    47  ILE47       0.0023
     65  CD1       14.2910   15.2520    2.5560 C.3    47  ILE47       0.0001
     66  N         15.4630   14.2980    7.0730 N.am   48  GLY48      -0.1940
     67  CA        14.6510   15.0460    8.0190 C.3    48  GLY48       0.2014
     68  C         14.5660   16.5410    7.6380 C.2    48  GLY48       0.2639
     69  O         15.4290   17.0790    6.9350 O.2    48  GLY48      -0.2714
     70  N         13.5130   17.1560    8.0370 N.am   49  GLY49      -0.1939
     71  CA        13.2480   18.6050    7.8450 C.3    49  GLY49       0.2014
     72  C         12.6190   18.9360    9.2530 C.2    49  GLY49       0.2638
     73  O         12.8640   18.0720   10.1240 O.2    49  GLY49      -0.2714
     74  N         11.7650   19.8930    9.2530 N.am   50  ILE50      -0.1977
     75  CA        11.0650   20.4380   10.4070 C.3    50  ILE50       0.1596
     76  C          9.9860   19.6010   11.0420 C.2    50  ILE50       0.2287
     77  O          9.7230   19.6870   12.2750 O.2    50  ILE50      -0.2864
     78  CB        10.4970   21.9040   10.0190 C.3    50  ILE50       0.0276
     79  CG1       10.7080   22.8220   11.2510 C.3    50  ILE50       0.0022
     80  CG2        9.0660   21.8620    9.4800 C.3    50  ILE50       0.0022
     81  CD1       11.0710   24.2840   10.9570 C.3    50  ILE50       0.0001
     82  N         11.6440   13.3790    9.8770 N.3    53  PHE53      -0.1241
     83  CA        12.1870   12.5220    8.8370 C.3    53  PHE53       0.1605
     84  C         11.2450   11.9310    7.8410 C.2    53  PHE53       0.2264
     85  O         10.0700   11.7230    8.1360 O.2    53  PHE53      -0.2867
     86  CB        13.0220   11.3850    9.5170 C.3    53  PHE53       0.0534
     87  CG        14.2530   11.9890   10.1820 C.ar   53  PHE53      -0.0203
     88  CD1       15.4160   12.1700    9.4390 C.ar   53  PHE53      -0.0042
     89  CD2       14.1920   12.4290   11.4990 C.ar   53  PHE53      -0.0042
     90  CE1       16.5720   12.7130   10.0060 C.ar   53  PHE53      -0.0003
     91  CE2       15.3430   12.9490   12.1130 C.ar   53  PHE53      -0.0003
     92  CZ        16.5370   13.0950   11.3660 C.ar   53  PHE53      -0.0000
     93  N         12.7250   22.0600   -3.7500 N.3    84  ILE84      -0.1245
     94  CA        13.8780   22.6600   -3.0550 C.3    84  ILE84       0.1561
     95  C         15.1340   22.5510   -3.9150 C.2    84  ILE84       0.2260
     96  O         15.3640   21.4660   -4.4910 O.2    84  ILE84      -0.2867
     97  CB        13.9860   22.0000   -1.6380 C.3    84  ILE84       0.0252
     98  CG1       13.0250   22.6780   -0.6640 C.3    84  ILE84       0.0019
     99  CG2       15.3900   21.9720   -0.9980 C.3    84  ILE84       0.0019
    100  CD1       11.6820   21.9420   -0.4540 C.3    84  ILE84       0.0001
@<TRIPOS>BOND
     1    96    95    2
     2    36    37    2
     3    36    35    1
     4    95    94    1
     5    93    94    1
     6    34    35    1
     7    35    38    1
     8    94    97    1
     9    38    39    1
    10    38    40    1
    11    28    29    2
    12    28    27    1
    13    97    99    1
    14    97    98    1
    15     1     2    1
    16    27    30    1
    17    27    26    1
    18    98   100    1
    19    30    31    1
    20     5     2    1
    21     5     6    1
    22     2     3    1
    23    32    31   ar
    24    21    20    2
    25     4     3    2
    26    31    33   ar
    27    26    20   am
    28    41    42    1
    29    20    19    1
    30    47    48    1
    31    47    46    1
    32    45    42    1
    33    45    46    1
    34    49    48    1
    35     6     8   ar
    36     6     7   ar
    37    16    15    2
    38    42    43    1
    39    17    14    1
    40    19    18    1
    41    19    22    1
    42    44    43    2
    43    15    14    1
    44    15    18   am
    45    65    63    1
    46    43    50   am
    47    14    13    1
    48    64    62    1
    49    22    23    1
    50    13    11   am
    51    63    62    1
    52     9    10    1
    53    62    59    1
    54    50    51    1
    55    23    24   ar
    56    23    25   ar
    57    11    10    1
    58    11    12    2
    59    53    52    2
    60    52    51    1
    61    52    58   am
    62    51    54    1
    63    58    59    1
    64    59    60    1
    65    61    60    2
    66    60    66   am
    67    54    55    1
    68    55    56    1
    69    69    68    2
    70    56    57    1
    71    66    67    1
    72    68    67    1
    73    68    70   am
    74    84    85    2
    75    84    83    1
    76    71    70    1
    77    71    72    1
    78    83    86    1
    79    83    82    1
    80    74    72   am
    81    74    75    1
    82    72    73    2
    83    88    90   ar
    84    88    87   ar
    85    80    78    1
    86    86    87    1
    87    90    92   ar
    88    78    75    1
    89    78    79    1
    90    87    89   ar
    91    75    76    1
    92    81    79    1
    93    76    77    2
    94    92    91   ar
    95    89    91   ar
