@<TRIPOS>MOLECULE
tmp/1hteA01.pdb
 72 67 0 0 0
SMALL
GASTEIGER

@<TRIPOS>ATOM
      1  N         18.5350   30.9590    6.3620 N.3    25  ASP25      -0.1239
      2  CA        17.7100   30.0710    5.5200 C.3    25  ASP25       0.1674
      3  C         16.6280   30.8110    4.7490 C.2    25  ASP25       0.2266
      4  O         15.5550   31.1940    5.2120 O.2    25  ASP25      -0.2867
      5  CB        17.1870   28.9220    6.3960 C.3    25  ASP25       0.1410
      6  CG        16.1340   28.0520    5.8220 C.2    25  ASP25       0.3668
      7  OD1       15.9410   28.0170    4.5930 O.co2  25  ASP25      -0.2456
      8  OD2       15.4510   27.3600    6.6040 O.co2  25  ASP25      -0.2456
      9  N         14.8180   29.3950    2.7700 N.3    27  GLY27      -0.1210
     10  CA        13.6280   28.5360    2.5410 C.3    27  GLY27       0.1956
     11  C         12.5620   28.8640    3.5770 C.2    27  GLY27       0.2612
     12  O         11.3700   28.6220    3.2620 O.2    27  GLY27      -0.2717
     13  N         12.9190   29.3590    4.7290 N.am   28  ALA28      -0.1965
     14  CA        12.0460   29.7480    5.7670 C.3    28  ALA28       0.1728
     15  C         11.6180   31.2430    5.6210 C.2    28  ALA28       0.2616
     16  O         12.4090   32.1790    5.5440 O.2    28  ALA28      -0.2715
     17  CB        12.6300   29.5520    7.1600 C.3    28  ALA28       0.0334
     18  N         10.3200   31.3980    5.6610 N.am   29  ASP29      -0.1957
     19  CA         9.5050   32.5590    5.6600 C.3    29  ASP29       0.1840
     20  C          9.6800   33.3380    6.9910 C.2    29  ASP29       0.2622
     21  O          9.7770   34.5710    7.0170 O.2    29  ASP29      -0.2715
     22  CB         8.0000   32.2090    5.4920 C.3    29  ASP29       0.1450
     23  CG         7.6370   31.6810    4.1440 C.2    29  ASP29       0.3671
     24  OD1        8.4730   31.6270    3.2190 O.co2  29  ASP29      -0.2456
     25  OD2        6.4740   31.2290    3.9400 O.co2  29  ASP29      -0.2456
     26  N          9.5510   32.5460    8.0360 N.am   30  ASP30      -0.1971
     27  CA         9.6140   33.0470    9.4170 C.3    30  ASP30       0.1709
     28  C         10.8750   32.4490   10.0910 C.2    30  ASP30       0.2293
     29  O         11.5680   31.6200    9.4700 O.2    30  ASP30      -0.2864
     30  CB         8.3640   32.7410   10.2230 C.3    30  ASP30       0.1436
     31  CG         7.0950   32.6640    9.3870 C.2    30  ASP30       0.3671
     32  OD1        6.5150   33.7490    9.0960 O.co2  30  ASP30      -0.2456
     33  OD2        6.7050   31.5140    9.0520 O.co2  30  ASP30      -0.2456
     34  N         12.1590   30.3860   13.3260 N.3    32  VAL32      -0.1245
     35  CA        11.7900   29.4390   14.3690 C.3    32  VAL32       0.1561
     36  C         13.0610   29.2860   15.2940 C.2    32  VAL32       0.2260
     37  O         14.1130   29.1680   14.7080 O.2    32  VAL32      -0.2867
     38  CB        11.3340   28.0130   14.0550 C.3    32  VAL32       0.0252
     39  CG1       10.2400   27.4970   15.0720 C.3    32  VAL32       0.0019
     40  CG2       10.8880   27.7420   12.6970 C.3    32  VAL32       0.0019
     41  N          3.5400   25.3810   11.6420 N.3    47  ILE47      -0.1231
     42  CA         4.4010   25.6190   10.4390 C.3    47  ILE47       0.1692
     43  C          4.7480   24.2600    9.9030 C.2    47  ILE47       0.2593
     44  O          5.1470   23.3280   10.6820 O.2    47  ILE47      -0.2718
     45  CB         5.5510   26.6110   10.7750 C.3    47  ILE47       0.0266
     46  CG1        6.8620   25.9050   11.1720 C.3    47  ILE47       0.0019
     47  CG2        5.1840   27.6870   11.8370 C.3    47  ILE47       0.0020
     48  CD1        7.8000   26.5830   12.1930 C.3    47  ILE47       0.0001
     49  N          4.6790   24.0370    8.5780 N.am   48  GLY48      -0.1942
     50  CA         5.1070   22.6440    8.2110 C.3    48  GLY48       0.2014
     51  C          6.0830   22.6240    7.0830 C.2    48  GLY48       0.2639
     52  O          5.9010   23.4100    6.1450 O.2    48  GLY48      -0.2714
     53  N          6.9840   21.6750    7.0670 N.am   49  GLY49      -0.1939
     54  CA         7.9420   21.5030    5.9510 C.3    49  GLY49       0.2014
     55  C          7.9920   20.0060    5.5710 C.2    49  GLY49       0.2638
     56  O          6.9450   19.3550    5.4220 O.2    49  GLY49      -0.2714
     57  N          9.2160   19.4970    5.5330 N.am   50  ILE50      -0.1977
     58  CA         9.5160   18.0780    5.2670 C.3    50  ILE50       0.1596
     59  C          9.3200   17.2070    6.4730 C.2    50  ILE50       0.2287
     60  O          9.8430   17.4350    7.5810 O.2    50  ILE50      -0.2864
     61  CB        10.9900   18.0550    4.6820 C.3    50  ILE50       0.0276
     62  CG1       10.8350   18.3860    3.1940 C.3    50  ILE50       0.0022
     63  CG2       11.7620   16.7830    5.0600 C.3    50  ILE50       0.0022
     64  CD1       11.8160   17.8510    2.2040 C.3    50  ILE50       0.0001
     65  N         16.3740   28.6280   13.2910 N.3    84  ILE84      -0.1245
     66  CA        16.2600   29.0420   11.9450 C.3    84  ILE84       0.1561
     67  C         15.9980   30.5780   11.8640 C.2    84  ILE84       0.2260
     68  O         14.9550   31.0150   12.3560 O.2    84  ILE84      -0.2867
     69  CB        15.0800   28.4030   11.1140 C.3    84  ILE84       0.0252
     70  CG1       15.3690   26.8990   10.8640 C.3    84  ILE84       0.0019
     71  CG2       14.7470   29.1750    9.8020 C.3    84  ILE84       0.0019
     72  CD1       14.0990   26.0460   11.3770 C.3    84  ILE84       0.0001
@<TRIPOS>BOND
     1    64    62    1
     2    10     9    1
     3    10    11    1
     4    62    61    1
     5    24    23   ar
     6    12    11    2
     7    11    13   am
     8    25    23   ar
     9    23    22    1
    10     7     6   ar
    11    61    63    1
    12    61    58    1
    13    13    14    1
    14     3     4    2
    15     3     2    1
    16    58    57    1
    17    58    59    1
    18    56    55    2
    19    22    19    1
    20     2     1    1
    21     2     5    1
    22    57    55   am
    23    16    15    2
    24    55    54    1
    25    15    18   am
    26    15    14    1
    27    19    18    1
    28    19    20    1
    29    14    17    1
    30     6     5    1
    31     6     8   ar
    32    54    53    1
    33    52    51    2
    34    59    60    2
    35    20    21    2
    36    20    26   am
    37    53    51   am
    38    51    50    1
    39    26    27    1
    40    50    49    1
    41    49    43   am
    42    33    31   ar
    43    32    31   ar
    44    31    30    1
    45    27    28    1
    46    27    30    1
    47    29    28    2
    48    71    69    1
    49    43    42    1
    50    43    44    2
    51    42    45    1
    52    42    41    1
    53    45    46    1
    54    45    47    1
    55    70    69    1
    56    70    72    1
    57    69    66    1
    58    46    48    1
    59    67    66    1
    60    67    68    2
    61    66    65    1
    62    40    38    1
    63    34    35    1
    64    38    35    1
    65    38    39    1
    66    35    36    1
    67    37    36    2
