@<TRIPOS>MOLECULE
tmp/1htfA00.pdb
 74 68 0 0 0
SMALL
GASTEIGER

@<TRIPOS>ATOM
      1  N         27.7380    8.8550    6.4620 N.3     8  ARG8       -0.1245
      2  CA        27.3630    8.3430    5.0980 C.3     8  ARG8        0.1563
      3  C         28.3150    8.7660    3.9680 C.2     8  ARG8        0.2260
      4  O         28.6090    9.9580    3.9010 O.2     8  ARG8       -0.2867
      5  CB        25.9430    8.7520    4.6750 C.3     8  ARG8        0.0307
      6  CG        24.8280    8.2710    5.6290 C.3     8  ARG8        0.0489
      7  CD        23.4860    8.9510    5.3390 C.3     8  ARG8        0.2205
      8  NE        23.7900   10.3710    5.1240 N.pl3   8  ARG8       -0.0865
      9  CZ        22.9890   11.4130    5.4110 C.cat   8  ARG8        0.5346
     10  NH1       21.7220   11.2390    5.8400 N.pl3   8  ARG8        0.1354
     11  NH2       23.5060   12.6500    5.2760 N.pl3   8  ARG8        0.1354
     12  N         24.9010    9.1550   -2.6870 N.3    23  LEU23      -0.1245
     13  CA        25.4600    8.1520   -1.7820 C.3    23  LEU23       0.1561
     14  C         26.2120    7.0360   -2.4980 C.2    23  LEU23       0.2260
     15  O         25.6310    6.3980   -3.3580 O.2    23  LEU23      -0.2867
     16  CB        24.2310    7.6080   -1.0210 C.3    23  LEU23       0.0270
     17  CG        24.3660    6.4760    0.0550 C.3    23  LEU23       0.0019
     18  CD1       25.3250    6.8340    1.2100 C.3    23  LEU23       0.0001
     19  CD2       23.0120    6.1740    0.6750 C.3    23  LEU23       0.0001
     20  N         26.9110    3.4220   -2.9270 N.3    25  ASP25      -0.1239
     21  CA        26.1400    2.3710   -2.3020 C.3    25  ASP25       0.1674
     22  C         26.4300    0.9760   -2.8270 C.2    25  ASP25       0.2266
     23  O         25.8140    0.4810   -3.7510 O.2    25  ASP25      -0.2867
     24  CB        24.7070    2.8310   -2.4780 C.3    25  ASP25       0.1410
     25  CG        23.6670    1.9490   -1.7940 C.2    25  ASP25       0.3668
     26  OD1       23.9770    0.8710   -1.2930 O.co2  25  ASP25      -0.2456
     27  OD2       22.5300    2.3730   -1.7710 O.co2  25  ASP25      -0.2456
     28  N         25.3860   -1.7650   -1.7950 N.3    27  GLY27      -0.1210
     29  CA        24.2250   -2.6450   -1.7480 C.3    27  GLY27       0.1956
     30  C         23.1390   -2.3940   -2.7390 C.2    27  GLY27       0.2611
     31  O         22.1200   -3.0250   -2.7050 O.2    27  GLY27      -0.2717
     32  N         23.3840   -1.4530   -3.6400 N.am   28  ALA28      -0.1979
     33  CA        22.5220   -1.1910   -4.8140 C.3    28  ALA28       0.1597
     34  C         23.1680   -1.6970   -6.1440 C.2    28  ALA28       0.2287
     35  O         24.3200   -1.4710   -6.4910 O.2    28  ALA28      -0.2864
     36  CB        22.2440    0.3270   -4.9030 C.3    28  ALA28       0.0319
     37  N         13.0900   -2.6940   -6.7310 N.3    48  GLY48      -0.1210
     38  CA        12.7080   -2.5110   -5.3340 C.3    48  GLY48       0.1956
     39  C         13.7630   -2.8090   -4.3310 C.2    48  GLY48       0.2612
     40  O         14.9480   -2.9460   -4.6100 O.2    48  GLY48      -0.2717
     41  N         13.2280   -2.9030   -3.1350 N.am   49  GLY49      -0.1942
     42  CA        14.0220   -3.4120   -2.0270 C.3    49  GLY49       0.2014
     43  C         13.2090   -3.2910   -0.7770 C.2    49  GLY49       0.2638
     44  O         12.0700   -3.7300   -0.7530 O.2    49  GLY49      -0.2714
     45  N         13.7390   -2.6180    0.2550 N.am   50  ILE50      -0.1977
     46  CA        13.0080   -2.6520    1.5320 C.3    50  ILE50       0.1596
     47  C         11.5850   -2.1430    1.6560 C.2    50  ILE50       0.2287
     48  O         10.7370   -2.8650    2.1200 O.2    50  ILE50      -0.2864
     49  CB        13.8880   -2.1700    2.6630 C.3    50  ILE50       0.0276
     50  CG1       14.5450   -3.4360    3.2040 C.3    50  ILE50       0.0022
     51  CG2       13.1400   -1.4290    3.7890 C.3    50  ILE50       0.0022
     52  CD1       15.9290   -3.2750    3.8060 C.3    50  ILE50       0.0001
     53  N         14.5760    8.1210   -1.9510 N.3    81  PRO81      -0.2102
     54  CA        14.8900    9.0960   -0.8600 C.3    81  PRO81       0.1504
     55  C         16.1590   10.0000   -1.0450 C.2    81  PRO81       0.2575
     56  O         16.3290   11.1060   -0.5620 O.2    81  PRO81      -0.2718
     57  CB        15.0670    8.1400    0.3510 C.3    81  PRO81       0.0282
     58  CG        14.3780    6.8140    0.0510 C.3    81  PRO81       0.0208
     59  CD        14.4990    6.7320   -1.4580 C.3    81  PRO81       0.0893
     60  N         17.1040    9.4350   -1.7580 N.am   82  VAL82      -0.1980
     61  CA        18.4070   10.0390   -1.8110 C.3    82  VAL82       0.1595
     62  C         18.9900    9.4960   -3.0770 C.2    82  VAL82       0.2287
     63  O         18.6090    8.4500   -3.5620 O.2    82  VAL82      -0.2864
     64  CB        19.2300    9.6860   -0.5040 C.3    82  VAL82       0.0276
     65  CG1       19.2970    8.1980   -0.2200 C.3    82  VAL82       0.0022
     66  CG2       20.6580   10.2390   -0.4230 C.3    82  VAL82       0.0022
     67  N         21.3960    7.6100   -5.2710 N.3    84  ILE84      -0.1245
     68  CA        22.2430    6.4130   -5.0810 C.3    84  ILE84       0.1561
     69  C         23.1050    6.1400   -6.3110 C.2    84  ILE84       0.2260
     70  O         22.6220    6.0450   -7.4230 O.2    84  ILE84      -0.2867
     71  CB        21.2980    5.2100   -4.8620 C.3    84  ILE84       0.0252
     72  CG1       20.6160    5.4070   -3.5260 C.3    84  ILE84       0.0019
     73  CG2       21.9130    3.7890   -4.8560 C.3    84  ILE84       0.0019
     74  CD1       19.2610    4.6960   -3.4780 C.3    84  ILE84       0.0001
@<TRIPOS>BOND
     1    70    69    2
     2    37    38    1
     3    35    34    2
     4    69    68    1
     5    34    33    1
     6    38    39    1
     7    67    68    1
     8    68    71    1
     9    36    33    1
    10    71    73    1
    11    71    72    1
    12    33    32    1
    13    40    39    2
    14    39    41   am
    15    23    22    2
    16    32    30   am
    17    63    62    2
    18    72    74    1
    19    15    14    2
    20    41    42    1
    21    62    61    1
    22    20    21    1
    23    22    21    1
    24    30    31    2
    25    30    29    1
    26    12    13    1
    27    14    13    1
    28    24    21    1
    29    24    25    1
    30    42    43    1
    31    53    59    1
    32    53    54    1
    33    61    60    1
    34    61    64    1
    35    28    29    1
    36    25    27   ar
    37    25    26   ar
    38    13    16    1
    39    60    55   am
    40    59    58    1
    41    55    54    1
    42    55    56    2
    43    16    17    1
    44    54    57    1
    45    43    44    2
    46    43    45   am
    47    64    66    1
    48    64    65    1
    49    58    57    1
    50    17    19    1
    51    17    18    1
    52    45    46    1
    53    46    47    1
    54    46    49    1
    55    47    48    2
    56    49    50    1
    57    49    51    1
    58    50    52    1
    59     4     3    2
    60     3     2    1
    61     5     2    1
    62     5     6    1
    63     2     1    1
    64     8     7    1
    65     8     9    2
    66    11     9    1
    67     7     6    1
    68     9    10    1
