@<TRIPOS>MOLECULE
tmp/1htgB00.pdb
 148 140 0 0 0
SMALL
GASTEIGER

@<TRIPOS>ATOM
      1  N          9.5240   34.6550   -1.7930 N.3     8  ARG8       -0.1245
      2  CA        10.2640   33.3920   -1.8700 C.3     8  ARG8        0.1563
      3  C         11.2010   33.3200   -3.0350 C.2     8  ARG8        0.2260
      4  O         10.7880   33.6980   -4.1170 O.2     8  ARG8       -0.2867
      5  CB         9.3110   32.2230   -2.0380 C.3     8  ARG8        0.0307
      6  CG         8.6000   31.9990   -0.7580 C.3     8  ARG8        0.0489
      7  CD         7.6260   30.8490   -0.7380 C.3     8  ARG8        0.2205
      8  NE         6.8570   31.2140    0.4210 N.pl3   8  ARG8       -0.0865
      9  CZ         5.6620   30.7470    0.7850 C.cat   8  ARG8        0.5346
     10  NH1        5.1910   29.5350    0.4220 N.pl3   8  ARG8        0.1354
     11  NH2        4.9270   31.5800    1.5400 N.pl3   8  ARG8        0.1354
     12  N         12.3540   26.2840   -5.2630 N.3    23  LEU23      -0.1245
     13  CA        12.8950   27.1530   -4.2350 C.3    23  LEU23       0.1561
     14  C         14.4120   27.0740   -4.0350 C.2    23  LEU23       0.2260
     15  O         14.9480   26.0040   -3.7510 O.2    23  LEU23      -0.2867
     16  CB        12.2090   26.7020   -2.9310 C.3    23  LEU23       0.0270
     17  CG        12.3840   27.5660   -1.6700 C.3    23  LEU23       0.0019
     18  CD1       11.6090   28.8510   -1.8360 C.3    23  LEU23       0.0001
     19  CD2       11.7580   26.8530   -0.4780 C.3    23  LEU23       0.0001
     20  N         17.1830   27.0650   -1.6440 N.3    25  ASP25      -0.1239
     21  CA        17.0580   26.8810   -0.2120 C.3    25  ASP25       0.1674
     22  C         18.3810   26.6000    0.4870 C.2    25  ASP25       0.2266
     23  O         18.8720   25.4760    0.5760 O.2    25  ASP25      -0.2867
     24  CB        16.0900   25.7040   -0.0970 C.3    25  ASP25       0.1410
     25  CG        15.6360   25.4210    1.3090 C.2    25  ASP25       0.3668
     26  OD1       16.2320   25.8610    2.2620 O.co2  25  ASP25      -0.2456
     27  OD2       14.6480   24.7490    1.4500 O.co2  25  ASP25      -0.2456
     28  N         18.9230   26.3390    3.5010 N.3    27  GLY27      -0.1210
     29  CA        18.7730   25.4860    4.6650 C.3    27  GLY27       0.1956
     30  C         18.6080   24.0100    4.3430 C.2    27  GLY27       0.2612
     31  O         18.3380   23.1950    5.2110 O.2    27  GLY27      -0.2717
     32  N         18.7000   23.6770    3.0540 N.am   28  ALA28      -0.1965
     33  CA        18.6050   22.2680    2.6260 C.3    28  ALA28       0.1728
     34  C         19.9370   21.7240    2.1880 C.2    28  ALA28       0.2616
     35  O         20.6570   22.3060    1.3770 O.2    28  ALA28      -0.2715
     36  CB        17.5160   22.0990    1.5210 C.3    28  ALA28       0.0334
     37  N         20.2920   20.6040    2.7590 N.am   29  ASP29      -0.1957
     38  CA        21.5810   20.1100    2.3310 C.3    29  ASP29       0.1840
     39  C         21.5670   19.5980    0.9350 C.2    29  ASP29       0.2622
     40  O         22.5030   19.7420    0.1890 O.2    29  ASP29      -0.2715
     41  CB        22.0250   18.9160    3.1800 C.3    29  ASP29       0.1450
     42  CG        22.2890   19.3020    4.6180 C.2    29  ASP29       0.3671
     43  OD1       22.5920   20.4590    4.9650 O.co2  29  ASP29      -0.2456
     44  OD2       22.1850   18.3790    5.4010 O.co2  29  ASP29      -0.2456
     45  N         20.4600   18.9830    0.5840 N.am   30  ASP30      -0.1971
     46  CA        20.3200   18.3460   -0.7340 C.3    30  ASP30       0.1709
     47  C         19.1300   18.8260   -1.5340 C.2    30  ASP30       0.2293
     48  O         18.2800   19.5490   -1.0590 O.2    30  ASP30      -0.2864
     49  CB        20.0110   16.8740   -0.5260 C.3    30  ASP30       0.1436
     50  CG        21.0480   16.0920    0.3150 C.2    30  ASP30       0.3671
     51  OD1       22.2190   15.9990   -0.0790 O.co2  30  ASP30      -0.2456
     52  OD2       20.6430   15.5540    1.3530 O.co2  30  ASP30      -0.2456
     53  N         15.6410   18.2440   -3.5930 N.3    32  VAL32      -0.1245
     54  CA        14.4700   17.3400   -3.4750 C.3    32  VAL32       0.1561
     55  C         13.3740   17.8070   -4.3720 C.2    32  VAL32       0.2260
     56  O         12.9210   18.9390   -4.3040 O.2    32  VAL32      -0.2867
     57  CB        13.7850   17.2840   -2.1000 C.3    32  VAL32       0.0252
     58  CG1       12.9260   16.0130   -2.0910 C.3    32  VAL32       0.0019
     59  CG2       14.7600   17.2810   -0.9700 C.3    32  VAL32       0.0019
     60  N         17.0110    6.7380    0.5680 N.3    45  LYS45      -0.1231
     61  CA        17.5550    7.7160    1.5180 C.3    45  LYS45       0.1693
     62  C         16.4880    8.2690    2.4660 C.2    45  LYS45       0.2592
     63  O         15.3070    8.3110    2.1920 O.2    45  LYS45      -0.2718
     64  CB        18.2090    8.8530    0.7270 C.3    45  LYS45       0.0285
     65  CG        19.1680    9.6690    1.5760 C.3    45  LYS45       0.0035
     66  CD        19.7000   10.8290    0.7680 C.3    45  LYS45       0.0206
     67  CE        20.5530   11.8130    1.5910 C.3    45  LYS45       0.1093
     68  NZ        21.7410   11.0950    2.0530 N.3    45  LYS45      -0.1314
     69  N         16.8970    8.6470    3.6320 N.am   46  MET46      -0.1965
     70  CA        15.8870    9.1380    4.5550 C.3    46  MET46       0.1736
     71  C         16.2620   10.5690    4.8320 C.2    46  MET46       0.2616
     72  O         17.4230   10.8210    5.1020 O.2    46  MET46      -0.2715
     73  CB        16.0700    8.3900    5.8700 C.3    46  MET46       0.0427
     74  CG        15.0080    8.5760    6.9670 C.3    46  MET46       0.0599
     75  SD        13.6170    7.4290    6.7330 S.3    46  MET46      -0.1393
     76  CE        14.4910    5.9940    7.4120 C.3    46  MET46       0.0692
     77  N         15.3190   11.5020    4.7510 N.am   47  ILE47      -0.1963
     78  CA        15.6880   12.8720    5.1470 C.3    47  ILE47       0.1727
     79  C         14.7380   13.4200    6.1810 C.2    47  ILE47       0.2617
     80  O         13.5740   13.0970    6.1770 O.2    47  ILE47      -0.2715
     81  CB        15.7630   13.8470    3.9510 C.3    47  ILE47       0.0290
     82  CG1       14.5140   13.7920    3.1160 C.3    47  ILE47       0.0022
     83  CG2       17.0200   13.6320    3.1000 C.3    47  ILE47       0.0023
     84  CD1       14.5490   14.8020    1.9680 C.3    47  ILE47       0.0001
     85  N         15.3000   14.2270    7.0800 N.am   48  GLY48      -0.1940
     86  CA        14.5780   14.8540    8.1800 C.3    48  GLY48       0.2014
     87  C         14.3260   16.3160    7.9120 C.2    48  GLY48       0.2639
     88  O         15.1550   17.0770    7.4590 O.2    48  GLY48      -0.2714
     89  N         13.1100   16.6820    8.1500 N.am   49  GLY49      -0.1939
     90  CA        12.8510   18.1080    8.1060 C.3    49  GLY49       0.2014
     91  C         12.2350   18.6290    9.3840 C.2    49  GLY49       0.2638
     92  O         12.2380   18.0390   10.4610 O.2    49  GLY49      -0.2714
     93  N         11.5800   19.7640    9.1900 N.am   50  ILE50      -0.1977
     94  CA        10.8090   20.3440   10.2980 C.3    50  ILE50       0.1596
     95  C          9.8080   19.4270   10.9070 C.2    50  ILE50       0.2287
     96  O          9.6750   19.4390   12.1060 O.2    50  ILE50      -0.2864
     97  CB        10.1150   21.6870    9.9290 C.3    50  ILE50       0.0276
     98  CG1        9.9460   22.5140   11.1770 C.3    50  ILE50       0.0022
     99  CG2        8.7540   21.6000    9.2360 C.3    50  ILE50       0.0022
    100  CD1       11.2940   23.0620   11.5580 C.3    50  ILE50       0.0001
    101  N         10.8020   12.6760    9.5260 N.3    53  PHE53      -0.1241
    102  CA        11.5960   12.0830    8.4410 C.3    53  PHE53       0.1605
    103  C         10.7730   11.6180    7.2820 C.2    53  PHE53       0.2264
    104  O          9.6680   11.1330    7.4070 O.2    53  PHE53      -0.2867
    105  CB        12.3590   10.8780    8.9340 C.3    53  PHE53       0.0534
    106  CG        13.5940   11.3950    9.6090 C.ar   53  PHE53      -0.0203
    107  CD1       13.5710   11.7430   10.9540 C.ar   53  PHE53      -0.0042
    108  CD2       14.7550   11.5620    8.8730 C.ar   53  PHE53      -0.0042
    109  CE1       14.7060   12.2670   11.5620 C.ar   53  PHE53      -0.0003
    110  CE2       15.9020   12.0840    9.4690 C.ar   53  PHE53      -0.0003
    111  CZ        15.8720   12.4400   10.8130 C.ar   53  PHE53      -0.0000
    112  N         17.0910   14.0940   -5.1520 N.3    76  LEU76      -0.1245
    113  CA        16.1590   13.2170   -4.4410 C.3    76  LEU76       0.1561
    114  C         14.7150   13.4840   -4.8320 C.2    76  LEU76       0.2260
    115  O         14.2770   14.6090   -5.0710 O.2    76  LEU76      -0.2867
    116  CB        16.3130   13.4160   -2.9010 C.3    76  LEU76       0.0270
    117  CG        17.7500   13.5060   -2.3620 C.3    76  LEU76       0.0019
    118  CD1       17.7200   13.9870   -0.9140 C.3    76  LEU76       0.0001
    119  CD2       18.4840   12.1740   -2.4850 C.3    76  LEU76       0.0001
    120  N          7.6850   16.1870   -1.2060 N.3    80  THR80      -0.1204
    121  CA         7.9850   17.4950   -0.6540 C.3    80  THR80       0.1979
    122  C          6.9120   18.4760   -1.0250 C.2    80  THR80       0.2460
    123  O          6.3130   18.3470   -2.0720 O.2    80  THR80      -0.2732
    124  CB         9.3740   17.8720   -1.2350 C.3    80  THR80       0.1783
    125  OG1        9.7660   19.1780   -0.7880 O.3    80  THR80      -0.2211
    126  CG2        9.4500   17.7890   -2.7630 C.3    80  THR80       0.0376
    127  N          6.6370   19.5060   -0.2040 N.am   81  PRO81      -0.2717
    128  CA         5.6260   20.4930   -0.6120 C.3    81  PRO81       0.1535
    129  C          5.9430   21.3100   -1.8490 C.2    81  PRO81       0.2598
    130  O          5.0680   21.7570   -2.5690 O.2    81  PRO81      -0.2715
    131  CB         5.5950   21.4370    0.5840 C.3    81  PRO81       0.0310
    132  CG         6.1540   20.6620    1.7730 C.3    81  PRO81       0.0237
    133  CD         7.2060   19.8130    1.1140 C.3    81  PRO81       0.0939
    134  N          7.2490   21.5070   -2.0760 N.am   82  VAL82      -0.1978
    135  CA         7.7580   22.2560   -3.2440 C.3    82  VAL82       0.1596
    136  C          9.0480   21.6440   -3.7190 C.2    82  VAL82       0.2287
    137  O          9.7520   21.0390   -2.9300 O.2    82  VAL82      -0.2864
    138  CB         8.0930   23.7640   -2.9560 C.3    82  VAL82       0.0276
    139  CG1        6.9180   24.6880   -2.9830 C.3    82  VAL82       0.0022
    140  CG2        8.7800   23.9440   -1.6240 C.3    82  VAL82       0.0022
    141  N         12.8300   21.7160   -4.2900 N.3    84  ILE84      -0.1245
    142  CA        13.8670   22.3780   -3.4940 C.3    84  ILE84       0.1561
    143  C         15.2420   22.2260   -4.0630 C.2    84  ILE84       0.2260
    144  O         15.6990   21.1090   -4.2060 O.2    84  ILE84      -0.2867
    145  CB        13.8780   21.7800   -2.0630 C.3    84  ILE84       0.0252
    146  CG1       12.6390   22.2190   -1.2730 C.3    84  ILE84       0.0019
    147  CG2       15.1400   22.0880   -1.2350 C.3    84  ILE84       0.0019
    148  CD1       12.4540   21.2430   -0.1010 C.3    84  ILE84       0.0001
@<TRIPOS>BOND
     1    12    13    1
     2   112   113    1
     3   115   114    2
     4   114   113    1
     5   113   116    1
     6    55    56    2
     7    55    54    1
     8   141   142    1
     9    13    14    1
    10    13    16    1
    11   144   143    2
    12     4     3    2
    13   143   142    1
    14    14    15    2
    15   136   135    1
    16   136   137    2
    17    53    54    1
    18   142   145    1
    19    54    57    1
    20   135   138    1
    21   135   134    1
    22     3     2    1
    23   139   138    1
    24   138   140    1
    25    16    17    1
    26   116   117    1
    27   126   124    1
    28   130   129    2
    29   119   117    1
    30   117   118    1
    31    57    58    1
    32    57    59    1
    33   134   129   am
    34   123   122    2
    35   145   146    1
    36   145   147    1
    37     5     2    1
    38     5     6    1
    39     2     1    1
    40   129   128    1
    41    18    17    1
    42    17    19    1
    43    20    21    1
    44    47    48    2
    45    47    46    1
    46   146   148    1
    47   124   125    1
    48   124   121    1
    49   120   121    1
    50   122   121    1
    51   122   127   am
    52     6     7    1
    53     7     8    1
    54    46    49    1
    55    46    45    1
    56   128   127    1
    57   128   131    1
    58    49    50    1
    59    21    24    1
    60    21    22    1
    61   127   133    1
    62    24    25    1
    63    51    50   ar
    64    40    39    2
    65    50    52   ar
    66     8     9    2
    67    10     9    1
    68    22    23    2
    69    60    61    1
    70    45    39   am
    71   131   132    1
    72    64    61    1
    73    64    65    1
    74    66    65    1
    75    66    67    1
    76     9    11    1
    77    39    38    1
    78   133   132    1
    79    25    27   ar
    80    25    26   ar
    81    35    34    2
    82    61    62    1
    83    36    33    1
    84    67    68    1
    85    84    82    1
    86    34    33    1
    87    34    37   am
    88    63    62    2
    89    38    37    1
    90    38    41    1
    91    62    69   am
    92    33    32    1
    93    32    30   am
    94    83    81    1
    95    82    81    1
    96    41    42    1
    97    28    29    1
    98    69    70    1
    99    81    78    1
   100    30    29    1
   101    30    31    2
   102    70    71    1
   103    70    73    1
   104    42    43   ar
   105    42    44   ar
   106    77    71   am
   107    77    78    1
   108    71    72    2
   109    78    79    1
   110    73    74    1
   111    80    79    2
   112    79    85   am
   113    75    74    1
   114    75    76    1
   115    85    86    1
   116   103   104    2
   117   103   102    1
   118    88    87    2
   119    87    89   am
   120    87    86    1
   121    90    89    1
   122    90    91    1
   123   102   105    1
   124   102   101    1
   125   108   110   ar
   126   108   106   ar
   127   105   106    1
   128    93    91   am
   129    93    94    1
   130    99    97    1
   131    91    92    2
   132   110   111   ar
   133   106   107   ar
   134    97    94    1
   135    97    98    1
   136    94    95    1
   137   111   109   ar
   138    95    96    2
   139   107   109   ar
   140    98   100    1
