@<TRIPOS>MOLECULE
tmp/1htiB00.pdb
 98 92 0 0 0
SMALL
GASTEIGER

@<TRIPOS>ATOM
      1  N          4.9850  -12.0960    2.5290 N.3    11  ASN11      -0.1240
      2  CA         4.9010  -10.6670    2.2890 C.3    11  ASN11       0.1653
      3  C          6.0360  -10.2680    1.3390 C.2    11  ASN11       0.2266
      4  O          7.2240  -10.3920    1.6920 O.2    11  ASN11      -0.2867
      5  CB         5.0100  -10.0420    3.6490 C.3    11  ASN11       0.1155
      6  CG         5.1050   -8.5540    3.7400 C.2    11  ASN11       0.2627
      7  OD1        4.9120   -7.7620    2.8090 O.2    11  ASN11      -0.2716
      8  ND2        5.4210   -8.1300    4.9460 N.am   11  ASN11      -0.0877
      9  N          6.6730   -7.2500    0.2740 N.3    13  LYS13      -0.1245
     10  CA         7.1180   -5.8890    0.6080 C.3    13  LYS13       0.1561
     11  C          7.1980   -5.0600   -0.6770 C.2    13  LYS13       0.2260
     12  O          6.4520   -5.3630   -1.6260 O.2    13  LYS13      -0.2867
     13  CB         8.4610   -6.0230    1.3790 C.3    13  LYS13       0.0271
     14  CG         8.3800   -7.2510    2.3200 C.3    13  LYS13       0.0035
     15  CD         9.3580   -7.5190    3.4370 C.3    13  LYS13       0.0206
     16  CE         8.9550   -6.6400    4.6310 C.3    13  LYS13       0.1093
     17  NZ         9.8940   -6.5630    5.7590 N.3    13  LYS13      -0.1314
     18  N          1.9890   -4.3250   10.4990 N.3    95  HIS95      -0.1241
     19  CA         3.3190   -4.8260   10.2180 C.3    95  HIS95       0.1621
     20  C          4.2510   -3.6640   10.5720 C.2    95  HIS95       0.2264
     21  O          4.0540   -2.4910   10.2270 O.2    95  HIS95      -0.2867
     22  CB         3.4330   -5.2250    8.7270 C.3    95  HIS95       0.0745
     23  CG         4.7330   -5.9240    8.4170 C.ar   95  HIS95       0.0817
     24  ND1        6.0040   -5.4630    8.4670 N.ar   95  HIS95      -0.2268
     25  CD2        4.7760   -7.2620    8.1230 C.ar   95  HIS95       0.1154
     26  CE1        6.7970   -6.4930    8.2530 C.ar   95  HIS95       0.1986
     27  NE2        6.0490   -7.5370    8.0350 N.ar   95  HIS95      -0.2212
     28  N          6.0520  -10.8850   15.5050 N.3   165  GLU165     -0.1196
     29  CA         7.2680  -10.4750   14.8010 C.3   165  GLU165      0.1783
     30  C          8.2230   -9.8120   15.8240 C.2   165  GLU165      0.2306
     31  O          8.0020   -8.6180   16.0970 O.2   165  GLU165     -0.2863
     32  CB         6.9530   -9.4460   13.6670 C.2   165  GLU165      0.0071
     33  CG         5.9970   -9.8420   12.5270 C.2   165  GLU165      0.0834
     34  CD         5.8550   -8.8320   11.3520 C.2   165  GLU165      0.3877
     35  OE1        5.6220   -7.6250   11.5670 O.co2 165  GLU165     -0.2406
     36  OE2        5.9770   -9.2900   10.2080 O.co2 165  GLU165     -0.2406
     37  N         14.3380   -9.6480   14.4160 N.3   169  ALA169     -0.1231
     38  CA        14.3430  -10.7680   13.4990 C.3   169  ALA169      0.1694
     39  C         13.8760  -10.4040   12.1400 C.2   169  ALA169      0.2592
     40  O         13.8100  -11.2990   11.3000 O.2   169  ALA169     -0.2718
     41  CB        13.4600  -11.9290   13.9650 C.3   169  ALA169      0.0304
     42  N         13.5090   -9.1650   11.8820 N.am  170  ILE170     -0.1966
     43  CA        13.1760   -8.7960   10.5370 C.3   170  ILE170      0.1727
     44  C         14.4900   -8.5150    9.8590 C.2   170  ILE170      0.2613
     45  O         15.2680   -7.7270   10.4070 O.2   170  ILE170     -0.2715
     46  CB        12.3350   -7.5620   10.5010 C.3   170  ILE170      0.0290
     47  CG1       10.9820   -7.9120   11.0890 C.3   170  ILE170      0.0022
     48  CG2       12.2100   -7.0170    9.0700 C.3   170  ILE170      0.0023
     49  CD1       10.2510   -6.6060   11.3480 C.3   170  ILE170      0.0001
     50  N         14.7690   -9.1620    8.7210 N.am  171  GLY171     -0.2012
     51  CA        15.9090   -8.7810    7.9110 C.3   171  GLY171      0.1506
     52  C         17.2720   -9.2980    8.3020 C.3   171  GLY171      0.2054
     53  O         18.1730   -8.9410    7.5520 O.3   171  GLY171     -0.2184
     54  N          9.5270  -13.1030   11.4760 N.3   210  GLY210     -0.1210
     55  CA        10.9140  -12.8510   11.7250 C.3   210  GLY210      0.1956
     56  C         11.5980  -13.5700   10.5840 C.2   210  GLY210      0.2613
     57  O         10.9010  -13.8450    9.5650 O.2   210  GLY210     -0.2717
     58  N         12.8920  -13.9380   10.7640 N.am  211  SER211     -0.1938
     59  CA        13.6450  -14.4560    9.6350 C.3   211  SER211      0.2055
     60  C         13.5800  -15.9440    9.4320 C.2   211  SER211      0.2642
     61  O         14.4830  -16.7300    9.7150 O.2   211  SER211     -0.2714
     62  CB        15.0820  -14.0150    9.7580 C.3   211  SER211      0.2130
     63  OG        15.1870  -12.6100    9.6100 O.3   211  SER211     -0.2179
     64  N         12.4480  -16.3600    8.8980 N.am  212  VAL212     -0.1977
     65  CA        12.2480  -17.7600    8.6350 C.3   212  VAL212      0.1596
     66  C         13.1100  -18.0200    7.4050 C.2   212  VAL212      0.2287
     67  O         13.1180  -17.2100    6.4670 O.2   212  VAL212     -0.2864
     68  CB        10.7700  -18.0090    8.3560 C.3   212  VAL212      0.0276
     69  CG1       10.5010  -19.4670    8.5690 C.3   212  VAL212      0.0022
     70  CG2        9.8850  -17.2110    9.2630 C.3   212  VAL212      0.0022
     71  N          5.0950  -15.8630    9.0160 N.3   230  LEU230     -0.1231
     72  CA         5.0820  -14.7150    8.1080 C.3   230  LEU230      0.1693
     73  C          6.5080  -14.5110    7.4800 C.2   230  LEU230      0.2592
     74  O          7.5530  -14.1700    8.0740 O.2   230  LEU230     -0.2718
     75  CB         4.5970  -13.4720    8.8500 C.3   230  LEU230      0.0284
     76  CG         4.3860  -12.3660    7.8400 C.3   230  LEU230      0.0019
     77  CD1        3.3300  -12.7900    6.8300 C.3   230  LEU230      0.0001
     78  CD2        3.9880  -11.0960    8.5580 C.3   230  LEU230      0.0001
     79  N          6.5980  -14.8170    6.1990 N.am  231  VAL231     -0.1966
     80  CA         7.8860  -14.8930    5.5620 C.3   231  VAL231      0.1727
     81  C          8.1580  -13.6350    4.8110 C.2   231  VAL231      0.2617
     82  O          7.4510  -13.3120    3.8270 O.2   231  VAL231     -0.2715
     83  CB         7.9600  -16.0860    4.6190 C.3   231  VAL231      0.0290
     84  CG1        9.4030  -16.2510    4.1490 C.3   231  VAL231      0.0023
     85  CG2        7.4470  -17.3330    5.3120 C.3   231  VAL231      0.0023
     86  N          9.2320  -13.0170    5.2360 N.am  232  GLY232     -0.1940
     87  CA         9.6020  -11.8350    4.5470 C.3   232  GLY232      0.2014
     88  C         10.3680  -12.1620    3.2800 C.2   232  GLY232      0.2639
     89  O          9.7890  -12.7600    2.3870 O.2   232  GLY232     -0.2714
     90  N         11.7040  -11.9320    3.2320 N.am  233  GLY233     -0.1939
     91  CA        12.4710  -11.9980    1.9900 C.3   233  GLY233      0.2014
     92  C         12.7060  -13.4030    1.4600 C.2   233  GLY233      0.2638
     93  O         13.1870  -13.5780    0.3380 O.2   233  GLY233     -0.2714
     94  N         12.4090  -14.4110    2.2550 N.am  234  ALA234     -0.1977
     95  CA        12.6410  -15.7560    1.8300 C.3   234  ALA234      0.1597
     96  C         11.5100  -16.1940    0.9340 C.2   234  ALA234      0.2287
     97  O         11.7260  -17.1210    0.1580 O.2   234  ALA234     -0.2864
     98  CB        12.7360  -16.6160    3.0610 C.3   234  ALA234      0.0319
@<TRIPOS>BOND
     1    12    11    2
     2    11    10    1
     3    97    96    2
     4     9    10    1
     5    93    92    2
     6    10    13    1
     7    96    95    1
     8     3     4    2
     9     3     2    1
    10    13    14    1
    11    92    91    1
    12    92    94   am
    13    95    94    1
    14    95    98    1
    15    91    90    1
    16     2     1    1
    17     2     5    1
    18    14    15    1
    19    89    88    2
    20     7     6    2
    21    90    88   am
    22    88    87    1
    23    15    16    1
    24     5     6    1
    25     6     8   am
    26    82    81    2
    27    84    83    1
    28    87    86    1
    29    83    85    1
    30    83    80    1
    31    16    17    1
    32    81    86   am
    33    81    80    1
    34    80    79    1
    35    79    73   am
    36    67    66    2
    37    77    76    1
    38    66    65    1
    39    73    74    2
    40    73    72    1
    41    53    52    1
    42    76    78    1
    43    76    75    1
    44    51    52    1
    45    51    50    1
    46    27    25   ar
    47    27    26   ar
    48    72    75    1
    49    72    71    1
    50    25    23   ar
    51    26    24   ar
    52    68    69    1
    53    68    65    1
    54    68    70    1
    55    23    24   ar
    56    23    22    1
    57    65    64    1
    58    50    44   am
    59    22    19    1
    60    64    60   am
    61    48    46    1
    62    60    59    1
    63    60    61    2
    64    57    56    2
    65    63    62    1
    66    59    62    1
    67    59    58    1
    68    44    45    2
    69    44    43    1
    70    36    34   ar
    71    19    18    1
    72    19    20    1
    73    21    20    2
    74    46    43    1
    75    46    47    1
    76    43    42    1
    77    56    58   am
    78    56    55    1
    79    47    49    1
    80    40    39    2
    81    34    35   ar
    82    34    33    1
    83    54    55    1
    84    42    39   am
    85    39    38    1
    86    33    32    2
    87    38    41    1
    88    38    37    1
    89    32    29    1
    90    29    28    1
    91    29    30    1
    92    30    31    2
