@<TRIPOS>MOLECULE
tmp/1htmD00.pdb
 142 137 0 0 0
SMALL
GASTEIGER

@<TRIPOS>ATOM
      1  N         30.4820   44.7520   20.1770 N.3    54  SER54      -0.1217
      2  CA        30.2450   45.6830   19.0920 C.3    54  SER54       0.1889
      3  C         31.2170   46.8320   19.3350 C.2    54  SER54       0.2288
      4  O         32.1160   47.0990   18.5180 O.2    54  SER54      -0.2866
      5  CB        28.8650   46.2650   19.1770 C.3    54  SER54       0.2089
      6  OG        27.9420   45.2170   19.2540 O.3    54  SER54      -0.2183
      7  N         34.7090   46.2650   18.4410 N.3    57  ALA57      -0.1231
      8  CA        34.8320   46.2590   16.9630 C.3    57  ALA57       0.1694
      9  C         34.8060   47.6870   16.4560 C.2    57  ALA57       0.2591
     10  O         35.7670   48.1230   15.7980 O.2    57  ALA57      -0.2718
     11  CB        33.7180   45.4550   16.3210 C.3    57  ALA57       0.0304
     12  N         33.7330   48.4160   16.7870 N.am   58  GLU58      -0.1979
     13  CA        33.6170   49.8140   16.4150 C.3    58  GLU58       0.1602
     14  C         34.8720   50.6060   16.8370 C.2    58  GLU58       0.2287
     15  O         35.3450   51.4420   16.0830 O.2    58  GLU58      -0.2864
     16  CB        32.4150   50.4260   17.0650 C.3    58  GLU58       0.0415
     17  CG        31.1600   49.7250   16.7510 C.3    58  GLU58       0.1163
     18  CD        29.9620   50.3150   17.5000 C.2    58  GLU58       0.3649
     19  OE1       29.6200   51.5090   17.2680 O.co2  58  GLU58      -0.2457
     20  OE2       29.3610   49.5820   18.3490 O.co2  58  GLU58      -0.2457
     21  N         37.4510   50.0780   14.3620 N.3    61  VAL61      -0.1245
     22  CA        37.0960   50.7360   13.1270 C.3    61  VAL61       0.1561
     23  C         37.3870   52.2270   13.1530 C.2    61  VAL61       0.2260
     24  O         38.1090   52.7180   12.2940 O.2    61  VAL61      -0.2867
     25  CB        35.6280   50.4100   12.8140 C.3    61  VAL61       0.0252
     26  CG1       34.8720   51.5630   12.1690 C.3    61  VAL61       0.0019
     27  CG2       35.6070   49.1750   11.9900 C.3    61  VAL61       0.0019
     28  N         40.7090   53.0300   12.5450 N.3    64  GLU64      -0.1245
     29  CA        41.1630   52.7950   11.1810 C.3    64  GLU64       0.1567
     30  C         40.8000   53.9770   10.3120 C.2    64  GLU64       0.2260
     31  O         41.6330   54.4700    9.6130 O.2    64  GLU64      -0.2867
     32  CB        40.6390   51.5030   10.5870 C.3    64  GLU64       0.0388
     33  CG        41.8000   50.6800   10.0130 C.3    64  GLU64       0.1160
     34  CD        41.3670   49.5120    9.1310 C.2    64  GLU64       0.3649
     35  OE1       40.1460   49.3840    8.8960 O.co2  64  GLU64      -0.2457
     36  OE2       42.2420   48.7220    8.6710 O.co2  64  GLU64      -0.2457
     37  N         41.0070   42.2140   15.4550 N.3    80  PHE80      -0.1241
     38  CA        39.8050   42.4190   14.6600 C.3    80  PHE80       0.1605
     39  C         39.0070   41.1410   14.4960 C.2    80  PHE80       0.2264
     40  O         37.7650   41.1390   14.5540 O.2    80  PHE80      -0.2867
     41  CB        40.1270   42.9550   13.2790 C.3    80  PHE80       0.0534
     42  CG        38.9300   43.4660   12.5880 C.ar   80  PHE80      -0.0203
     43  CD1       38.1830   44.4950   13.1660 C.ar   80  PHE80      -0.0042
     44  CD2       38.4690   42.8690   11.4350 C.ar   80  PHE80      -0.0042
     45  CE1       36.9770   44.9290   12.6080 C.ar   80  PHE80      -0.0003
     46  CE2       37.2630   43.2880   10.8620 C.ar   80  PHE80      -0.0003
     47  CZ        36.5120   44.3270   11.4560 C.ar   80  PHE80      -0.0000
     48  N         35.1420   40.0940   15.4710 N.3    84  ARG84      -0.1245
     49  CA        34.4100   39.7160   14.2610 C.3    84  ARG84       0.1563
     50  C         33.6040   38.4470   14.5270 C.2    84  ARG84       0.2260
     51  O         32.4010   38.3980   14.2620 O.2    84  ARG84      -0.2867
     52  CB        35.3960   39.4790   13.1220 C.3    84  ARG84       0.0307
     53  CG        34.7340   39.3800   11.7720 C.3    84  ARG84       0.0489
     54  CD        35.6730   38.8070   10.7260 C.3    84  ARG84       0.2205
     55  NE        34.9650   37.8520    9.8690 N.pl3  84  ARG84      -0.0865
     56  CZ        35.0030   36.5280   10.0100 C.cat  84  ARG84       0.5346
     57  NH1       35.7260   35.9740   10.9820 N.pl3  84  ARG84       0.1354
     58  NH2       34.2530   35.7580    9.2170 N.pl3  84  ARG84       0.1354
     59  N         30.7230   38.7460   16.7770 N.3    87  LEU87      -0.1245
     60  CA        29.6150   39.4010   16.0800 C.3    87  LEU87       0.1561
     61  C         28.8770   38.4170   15.1520 C.2    87  LEU87       0.2260
     62  O         27.6420   38.4160   15.0890 O.2    87  LEU87      -0.2867
     63  CB        30.1140   40.6320   15.3280 C.3    87  LEU87       0.0270
     64  CG        30.2370   41.9040   16.1660 C.3    87  LEU87       0.0019
     65  CD1       31.2250   42.8360   15.4970 C.3    87  LEU87       0.0001
     66  CD2       28.8650   42.5730   16.3160 C.3    87  LEU87       0.0001
     67  N         24.6710   39.8130    8.3340 N.3    94  MET94      -0.1245
     68  CA        24.1640   40.1820    7.0410 C.3    94  MET94       0.1570
     69  C         25.4350   40.4380    6.2380 C.2    94  MET94       0.2261
     70  O         26.5320   40.5020    6.8110 O.2    94  MET94      -0.2867
     71  CB        23.3070   41.4240    7.1690 C.3    94  MET94       0.0387
     72  CG        22.1530   41.2000    8.1040 C.3    94  MET94       0.0595
     73  SD        21.4720   42.7580    8.6760 S.3    94  MET94      -0.1393
     74  CE        19.7220   42.3470    8.8720 C.3    94  MET94       0.0692
     75  N         28.4970   42.0320    3.7410 N.3    96  ASN96      -0.1225
     76  CA        29.4480   43.1420    3.6980 C.3    96  ASN96       0.1785
     77  C         29.8050   43.7910    5.0180 C.2    96  ASN96       0.2598
     78  O         29.8600   45.0240    5.1470 O.2    96  ASN96      -0.2718
     79  CB        29.1080   44.2020    2.6220 C.3    96  ASN96       0.1169
     80  CG        27.9370   45.1020    3.0030 C.2    96  ASN96       0.2627
     81  OD1       27.6890   45.3650    4.1780 O.2    96  ASN96      -0.2716
     82  ND2       27.2080   45.5770    1.9950 N.am   96  ASN96      -0.0877
     83  N         30.1190   42.9430    5.9890 N.am   97  GLY97      -0.1942
     84  CA        30.5260   43.4510    7.2760 C.3    97  GLY97       0.2014
     85  C         29.4360   44.2470    7.9390 C.2    97  GLY97       0.2639
     86  O         29.6970   45.2430    8.6040 O.2    97  GLY97      -0.2714
     87  N         28.2000   43.8920    7.6600 N.am   98  CYS98      -0.1953
     88  CA        27.1280   44.5660    8.3400 C.3    98  CYS98       0.1843
     89  C         26.5360   43.4900    9.2190 C.2    98  CYS98       0.2625
     90  O         26.7230   42.2930    8.9580 O.2    98  CYS98      -0.2714
     91  CB        26.1260   45.1610    7.3760 C.3    98  CYS98       0.0997
     92  SG        26.8510   46.5470    6.4530 S.3    98  CYS98      -0.0797
     93  N         25.9600   43.9060   10.3390 N.am   99  PHE99      -0.1960
     94  CA        25.3750   42.9740   11.2720 C.3    99  PHE99       0.1771
     95  C         24.2040   43.5680   11.9590 C.2    99  PHE99       0.2619
     96  O         24.1380   44.7900   12.1700 O.2    99  PHE99      -0.2715
     97  CB        26.3540   42.6530   12.3380 C.3    99  PHE99       0.0574
     98  CG        27.4260   41.7720   11.9110 C.ar   99  PHE99      -0.0200
     99  CD1       27.2490   40.4000   11.9470 C.ar   99  PHE99      -0.0042
    100  CD2       28.6680   42.2870   11.6030 C.ar   99  PHE99      -0.0042
    101  CE1       28.3180   39.5210   11.6950 C.ar   99  PHE99      -0.0003
    102  CE2       29.7500   41.4260   11.3480 C.ar   99  PHE99      -0.0003
    103  CZ        29.5780   40.0380   11.3980 C.ar   99  PHE99      -0.0000
    104  N         23.2770   42.6940   12.3190 N.am  100  LYS100     -0.1963
    105  CA        22.1050   43.1230   13.0520 C.3   100  LYS100      0.1728
    106  C         22.2330   42.5350   14.4670 C.2   100  LYS100      0.2616
    107  O         22.3290   41.3150   14.6420 O.2   100  LYS100     -0.2715
    108  CB        20.8250   42.6580   12.3720 C.3   100  LYS100      0.0311
    109  CG        19.6670   43.5300   12.7550 C.3   100  LYS100      0.0038
    110  CD        18.3860   43.0350   12.1710 C.3   100  LYS100      0.0206
    111  CE        17.2280   43.8960   12.6590 C.3   100  LYS100      0.1093
    112  NZ        15.9320   43.5260   12.0080 N.3   100  LYS100     -0.1314
    113  N         22.3850   43.4170   15.4540 N.am  101  ILE101     -0.1963
    114  CA        22.5180   43.0270   16.8480 C.3   101  ILE101      0.1727
    115  C         21.1300   42.8480   17.4140 C.2   101  ILE101      0.2616
    116  O         20.3410   43.7990   17.4430 O.2   101  ILE101     -0.2715
    117  CB        23.3130   44.1030   17.6330 C.3   101  ILE101      0.0290
    118  CG1       24.8030   43.7720   17.5950 C.3   101  ILE101      0.0022
    119  CG2       22.8250   44.2260   19.0710 C.3   101  ILE101      0.0023
    120  CD1       25.5790   44.5320   16.5480 C.3   101  ILE101      0.0001
    121  N         20.8100   41.6180   17.8060 N.am  102  TYR102     -0.1960
    122  CA        19.5010   41.2870   18.3870 C.3   102  TYR102      0.1771
    123  C         19.4520   41.1980   19.9270 C.2   102  TYR102      0.2619
    124  O         20.2090   40.4520   20.5490 O.2   102  TYR102     -0.2715
    125  CB        18.9570   40.0090   17.7470 C.3   102  TYR102      0.0574
    126  CG        18.1090   40.3210   16.5460 C.ar  102  TYR102     -0.0198
    127  CD1       17.0150   41.1750   16.6690 C.ar  102  TYR102     -0.0009
    128  CD2       18.4170   39.8110   15.2810 C.ar  102  TYR102     -0.0009
    129  CE1       16.2410   41.5240   15.5760 C.ar  102  TYR102      0.0417
    130  CE2       17.6440   40.1530   14.1680 C.ar  102  TYR102      0.0417
    131  CZ        16.5530   41.0100   14.3350 C.ar  102  TYR102      0.1957
    132  OH        15.7400   41.3390   13.2740 O.3   102  TYR102     -0.2866
    133  N         18.5760   41.9610   20.5580 N.am  103  HIS103     -0.1973
    134  CA        18.5390   41.8950   21.9990 C.3   103  HIS103      0.1656
    135  C         17.4830   41.0110   22.5660 C.2   103  HIS103      0.2291
    136  O         16.3010   41.3870   22.5750 O.2   103  HIS103     -0.2864
    137  CB        18.4670   43.2720   22.5940 C.3   103  HIS103      0.0771
    138  CG        19.7820   43.9610   22.5910 C.ar  103  HIS103      0.0820
    139  ND1       20.9440   43.3050   22.2370 N.ar  103  HIS103     -0.2267
    140  CD2       20.1360   45.2280   22.9000 C.ar  103  HIS103      0.1154
    141  CE1       21.9610   44.1420   22.3310 C.ar  103  HIS103      0.1986
    142  NE2       21.4990   45.3140   22.7310 N.ar  103  HIS103     -0.2212
@<TRIPOS>BOND
     1    82    80   am
     2    79    80    1
     3    79    76    1
     4    80    81    2
     5    76    75    1
     6    76    77    1
     7    77    78    2
     8    77    83   am
     9    83    84    1
    10    69    70    2
    11    69    68    1
    12    92    91    1
    13    68    71    1
    14    68    67    1
    15    71    72    1
    16    84    85    1
    17    91    88    1
    18    87    85   am
    19    87    88    1
    20    85    86    2
    21    72    73    1
    22    88    89    1
    23    36    34   ar
    24    73    74    1
    25    35    34   ar
    26    90    89    2
    27    34    33    1
    28    58    56    1
    29    89    93   am
    30    31    30    2
    31    55    56    2
    32    55    54    1
    33    56    57    1
    34    33    32    1
    35    30    29    1
    36    93    94    1
    37    32    29    1
    38    54    53    1
    39    46    44   ar
    40    46    47   ar
    41    29    28    1
    42    94    95    1
    43    94    97    1
    44   102   103   ar
    45   102   100   ar
    46   103   101   ar
    47    44    42   ar
    48    47    45   ar
    49   100    98   ar
    50   101    99   ar
    51    53    52    1
    52    98    99   ar
    53    98    97    1
    54    95    96    2
    55    95   104   am
    56    27    25    1
    57   112   111    1
    58    26    25    1
    59   110   111    1
    60   110   109    1
    61    24    23    2
    62   104   105    1
    63   108   109    1
    64   108   105    1
    65    42    43   ar
    66    42    41    1
    67    45    43   ar
    68    25    22    1
    69   105   106    1
    70    52    49    1
    71    22    23    1
    72    22    21    1
    73   132   131    1
    74    41    38    1
    75   130   131   ar
    76   130   128   ar
    77    49    50    1
    78    49    48    1
    79    51    50    2
    80   131   129   ar
    81   106   107    2
    82   106   113   am
    83    39    40    2
    84    39    38    1
    85    38    37    1
    86    62    61    2
    87    61    60    1
    88   128   126   ar
    89    63    60    1
    90    63    64    1
    91   113   114    1
    92    65    64    1
    93   129   127   ar
    94    10     9    2
    95    60    59    1
    96    15    14    2
    97    64    66    1
    98    11     8    1
    99    13    12    1
   100    13    14    1
   101    13    16    1
   102     9    12   am
   103     9     8    1
   104   126   127   ar
   105   126   125    1
   106   120   118    1
   107    17    16    1
   108    17    18    1
   109   114   115    1
   110   114   117    1
   111     8     7    1
   112    19    18   ar
   113   115   116    2
   114   115   121   am
   115    18    20   ar
   116   118   117    1
   117   117   119    1
   118   125   122    1
   119   121   122    1
   120   122   123    1
   121     4     3    2
   122     2     5    1
   123     2     3    1
   124     2     1    1
   125     5     6    1
   126   123   124    2
   127   123   133   am
   128   133   134    1
   129   134   135    1
   130   134   137    1
   131   139   141   ar
   132   139   138   ar
   133   141   142   ar
   134   135   136    2
   135   138   137    1
   136   138   140   ar
   137   142   140   ar
