@<TRIPOS>MOLECULE
tmp/1htmF00.pdb
 172 165 0 0 0
SMALL
GASTEIGER

@<TRIPOS>ATOM
      1  N         32.9240   51.2880   32.2330 N.3    54  SER54      -0.1217
      2  CA        33.6500   52.4420   32.7430 C.3    54  SER54       0.1889
      3  C         35.0910   52.3870   32.2530 C.2    54  SER54       0.2288
      4  O         35.6400   53.4210   31.8830 O.2    54  SER54      -0.2866
      5  CB        33.5340   52.5850   34.2800 C.3    54  SER54       0.2089
      6  OG        34.2540   51.5790   34.9770 O.3    54  SER54      -0.2183
      7  N         35.1410   54.0940   28.9170 N.3    57  ALA57      -0.1231
      8  CA        35.1260   55.5520   29.0340 C.3    57  ALA57       0.1694
      9  C         36.4530   56.1220   29.5190 C.2    57  ALA57       0.2591
     10  O         36.8550   57.2090   29.1490 O.2    57  ALA57      -0.2718
     11  CB        34.0230   55.9960   29.9390 C.3    57  ALA57       0.0304
     12  N         37.1670   55.3750   30.3210 N.am   58  GLU58      -0.1979
     13  CA        38.4200   55.8850   30.7860 C.3    58  GLU58       0.1602
     14  C         39.4940   55.7340   29.7140 C.2    58  GLU58       0.2287
     15  O         40.4570   56.5020   29.7310 O.2    58  GLU58      -0.2864
     16  CB        38.8370   55.1670   32.0500 C.3    58  GLU58       0.0415
     17  CG        37.9480   55.3990   33.2760 C.3    58  GLU58       0.1163
     18  CD        38.3830   54.4760   34.4000 C.2    58  GLU58       0.3649
     19  OE1       39.4780   54.7220   34.9730 O.co2  58  GLU58      -0.2457
     20  OE2       37.6960   53.4450   34.6450 O.co2  58  GLU58      -0.2457
     21  N         39.2720   58.6370   27.2730 N.3    61  VAL61      -0.1245
     22  CA        39.9190   59.7730   27.9470 C.3    61  VAL61       0.1561
     23  C         41.4350   59.6980   28.0390 C.2    61  VAL61       0.2260
     24  O         42.1060   60.6660   27.7850 O.2    61  VAL61      -0.2867
     25  CB        39.3340   59.9340   29.3330 C.3    61  VAL61       0.0252
     26  CG1       40.2750   60.7190   30.2110 C.3    61  VAL61       0.0019
     27  CG2       37.9660   60.6160   29.2230 C.3    61  VAL61       0.0019
     28  N         42.6720   60.3710   24.4470 N.3    64  GLU64      -0.1245
     29  CA        42.6140   61.7680   24.0930 C.3    64  GLU64       0.1567
     30  C         43.8400   62.4610   24.7140 C.2    64  GLU64       0.2260
     31  O         44.6120   63.1490   24.0390 O.2    64  GLU64      -0.2867
     32  CB        41.3730   62.4000   24.6630 C.3    64  GLU64       0.0388
     33  CG        41.0410   63.6440   23.9580 C.3    64  GLU64       0.1160
     34  CD        39.9850   64.4640   24.6390 C.2    64  GLU64       0.3649
     35  OE1       39.9110   64.3670   25.8930 O.co2  64  GLU64      -0.2457
     36  OE2       39.2390   65.2200   23.9330 O.co2  64  GLU64      -0.2457
     37  N         38.0190   63.3100   21.1280 N.3    71  LEU71      -0.1231
     38  CA        36.6120   63.0290   21.3400 C.3    71  LEU71       0.1693
     39  C         35.6790   64.0390   20.7470 C.2    71  LEU71       0.2592
     40  O         34.4810   64.0250   21.0600 O.2    71  LEU71      -0.2718
     41  CB        36.2940   62.7760   22.8210 C.3    71  LEU71       0.0284
     42  CG        37.2080   61.7850   23.5420 C.3    71  LEU71       0.0019
     43  CD1       36.6660   61.5060   24.9180 C.3    71  LEU71       0.0001
     44  CD2       37.3050   60.5120   22.7550 C.3    71  LEU71       0.0001
     45  N         36.2150   64.9260   19.9080 N.am   72  THR72      -0.1953
     46  CA        35.3680   65.8860   19.2010 C.3    72  THR72       0.1897
     47  C         35.0260   65.2910   17.8230 C.2    72  THR72       0.2313
     48  O         33.9450   65.5450   17.3000 O.2    72  THR72      -0.2863
     49  CB        35.9990   67.2930   19.0630 C.3    72  THR72       0.1794
     50  OG1       37.1480   67.2490   18.2170 O.3    72  THR72      -0.2208
     51  CG2       36.4110   67.8050   20.3930 C.3    72  THR72       0.0378
     52  N         33.4660   60.6650   19.1960 N.3    77  ASN77      -0.1240
     53  CA        32.5350   61.2300   20.1480 C.3    77  ASN77       0.1653
     54  C         31.3110   60.3300   20.2810 C.2    77  ASN77       0.2266
     55  O         30.6430   60.3430   21.3100 O.2    77  ASN77      -0.2867
     56  CB        32.0470   62.5840   19.7400 C.3    77  ASN77       0.1155
     57  CG        31.0860   63.1460   20.7550 C.2    77  ASN77       0.2627
     58  OD1       31.4960   63.5140   21.8460 O.2    77  ASN77      -0.2716
     59  ND2       29.7870   63.1370   20.4420 N.am   77  ASN77      -0.0877
     60  N         32.2080   57.5700   22.6660 N.3    80  PHE80      -0.1241
     61  CA        32.1620   58.1400   23.9860 C.3    80  PHE80       0.1605
     62  C         30.7120   58.2990   24.4440 C.2    80  PHE80       0.2264
     63  O         30.3710   57.9140   25.5580 O.2    80  PHE80      -0.2867
     64  CB        32.9260   59.4670   23.9910 C.3    80  PHE80       0.0534
     65  CG        32.9460   60.1590   25.3180 C.ar   80  PHE80      -0.0203
     66  CD1       33.8930   59.8080   26.2900 C.ar   80  PHE80      -0.0042
     67  CD2       31.9910   61.1400   25.6240 C.ar   80  PHE80      -0.0042
     68  CE1       33.8950   60.4110   27.5610 C.ar   80  PHE80      -0.0003
     69  CE2       31.9770   61.7550   26.8970 C.ar   80  PHE80      -0.0003
     70  CZ        32.9360   61.3800   27.8620 C.ar   80  PHE80      -0.0000
     71  N         29.5420   54.8270   25.8110 N.3    83  THR83      -0.1203
     72  CA        29.9250   54.4670   27.1750 C.3    83  THR83       0.1994
     73  C         29.1930   55.3990   28.1240 C.2    83  THR83       0.2617
     74  O         28.6430   54.9750   29.1160 O.2    83  THR83      -0.2717
     75  CB        31.4250   54.6250   27.4370 C.3    83  THR83       0.1784
     76  OG1       31.7390   56.0180   27.4770 O.3    83  THR83      -0.2211
     77  CG2       32.2790   53.9220   26.3610 C.3    83  THR83       0.0376
     78  N         29.1060   56.6670   27.7860 N.am   84  ARG84      -0.1979
     79  CA        28.4260   57.5670   28.6750 C.3    84  ARG84       0.1597
     80  C         26.9880   57.1260   28.9730 C.2    84  ARG84       0.2287
     81  O         26.4980   57.3850   30.0610 O.2    84  ARG84      -0.2864
     82  CB        28.4610   58.9700   28.0970 C.3    84  ARG84       0.0334
     83  CG        27.9720   60.0540   29.0380 C.3    84  ARG84       0.0492
     84  CD        27.4350   61.2810   28.2810 C.3    84  ARG84       0.2205
     85  NE        25.9790   61.2590   28.0790 N.pl3  84  ARG84      -0.0865
     86  CZ        25.3290   60.5310   27.1660 C.cat  84  ARG84       0.5346
     87  NH1       25.9820   59.7220   26.3180 N.pl3  84  ARG84       0.1354
     88  NH2       24.0250   60.7130   27.0130 N.pl3  84  ARG84       0.1354
     89  N         27.0050   54.0610   31.5080 N.3    87  LEU87      -0.1245
     90  CA        27.2690   54.5570   32.8530 C.3    87  LEU87       0.1561
     91  C         26.0280   55.3070   33.3070 C.2    87  LEU87       0.2260
     92  O         25.3820   54.9280   34.2570 O.2    87  LEU87      -0.2867
     93  CB        28.4570   55.5210   32.8630 C.3    87  LEU87       0.0270
     94  CG        29.8320   55.1470   32.2930 C.3    87  LEU87       0.0019
     95  CD1       30.7610   56.3070   32.6200 C.3    87  LEU87       0.0001
     96  CD2       30.4340   53.8180   32.8040 C.3    87  LEU87       0.0001
     97  N         26.3140   62.4560   38.2100 N.3    94  MET94      -0.1245
     98  CA        26.5100   63.6070   39.0730 C.3    94  MET94       0.1570
     99  C         26.0330   64.8980   38.4160 C.2    94  MET94       0.2261
    100  O         25.4740   65.7700   39.0850 O.2    94  MET94      -0.2867
    101  CB        27.9880   63.7420   39.4420 C.3    94  MET94       0.0387
    102  CG        28.5680   62.5570   40.1940 C.3    94  MET94       0.0595
    103  SD        28.0300   62.4780   41.9000 S.3    94  MET94      -0.1393
    104  CE        26.4880   61.5450   41.7350 C.3    94  MET94       0.0692
    105  N         28.1680   66.9980   36.2870 N.3    96  ASN96      -0.1225
    106  CA        29.2920   67.6910   35.6850 C.3    96  ASN96       0.1785
    107  C         30.1880   66.7390   34.8920 C.2    96  ASN96       0.2598
    108  O         31.3420   67.0620   34.6010 O.2    96  ASN96      -0.2718
    109  CB        30.0990   68.4220   36.7580 C.3    96  ASN96       0.1169
    110  CG        29.4680   69.7510   37.1590 C.2    96  ASN96       0.2627
    111  OD1       28.7430   70.3770   36.3800 O.2    96  ASN96      -0.2716
    112  ND2       29.7380   70.1860   38.3840 N.am   96  ASN96      -0.0877
    113  N         29.6430   65.5880   34.4950 N.am   97  GLY97      -0.1942
    114  CA        30.4390   64.6150   33.7610 C.3    97  GLY97       0.2014
    115  C         31.1770   63.6540   34.6850 C.2    97  GLY97       0.2639
    116  O         32.1940   63.0350   34.3230 O.2    97  GLY97      -0.2714
    117  N         30.7230   63.6300   35.9340 N.am   98  CYS98      -0.1953
    118  CA        31.2660   62.7380   36.9460 C.3    98  CYS98       0.1843
    119  C         30.1160   61.7850   37.1590 C.2    98  CYS98       0.2625
    120  O         28.9470   62.1770   37.0640 O.2    98  CYS98      -0.2714
    121  CB        31.6270   63.4820   38.2410 C.3    98  CYS98       0.0997
    122  SG        33.1460   64.5090   38.1500 S.3    98  CYS98      -0.0797
    123  N         30.4400   60.5350   37.4260 N.am   99  PHE99      -0.1960
    124  CA        29.4450   59.4990   37.6020 C.3    99  PHE99       0.1771
    125  C         29.7800   58.7770   38.8550 C.2    99  PHE99       0.2619
    126  O         30.9520   58.4720   39.1020 O.2    99  PHE99      -0.2715
    127  CB        29.5200   58.4770   36.4630 C.3    99  PHE99       0.0574
    128  CG        28.8560   58.9180   35.2130 C.ar   99  PHE99      -0.0200
    129  CD1       27.4860   58.8210   35.0820 C.ar   99  PHE99      -0.0042
    130  CD2       29.6000   59.4640   34.1810 C.ar   99  PHE99      -0.0042
    131  CE1       26.8700   59.2670   33.9470 C.ar   99  PHE99      -0.0003
    132  CE2       28.9910   59.9140   33.0410 C.ar   99  PHE99      -0.0003
    133  CZ        27.6220   59.8170   32.9230 C.ar   99  PHE99      -0.0000
    134  N         28.7510   58.5060   39.6440 N.am  100  LYS100     -0.1963
    135  CA        28.9230   57.7870   40.8830 C.3   100  LYS100      0.1728
    136  C         28.6040   56.3580   40.5860 C.2   100  LYS100      0.2616
    137  O         27.4620   56.0120   40.3040 O.2   100  LYS100     -0.2715
    138  CB        27.9830   58.3100   41.9540 C.3   100  LYS100      0.0311
    139  CG        28.3100   57.7670   43.3200 C.3   100  LYS100      0.0038
    140  CD        27.5230   58.4980   44.3580 C.3   100  LYS100      0.0206
    141  CE        27.9810   58.1050   45.7280 C.3   100  LYS100      0.1093
    142  NZ        27.0260   58.6950   46.7000 N.3   100  LYS100     -0.1314
    143  N         29.6360   55.5440   40.5860 N.am  101  ILE101     -0.1963
    144  CA        29.4950   54.1350   40.3150 C.3   101  ILE101      0.1727
    145  C         29.3630   53.2520   41.6030 C.2   101  ILE101      0.2616
    146  O         30.3030   53.1370   42.4140 O.2   101  ILE101     -0.2715
    147  CB        30.6650   53.7070   39.3900 C.3   101  ILE101      0.0290
    148  CG1       30.5800   54.4790   38.0750 C.3   101  ILE101      0.0022
    149  CG2       30.6960   52.2060   39.1600 C.3   101  ILE101      0.0023
    150  CD1       31.6450   54.0780   37.1070 C.3   101  ILE101      0.0001
    151  N         28.1750   52.6640   41.7950 N.am  102  TYR102     -0.1960
    152  CA        27.8900   51.7900   42.9400 C.3   102  TYR102      0.1771
    153  C         28.2610   50.3570   42.6030 C.2   102  TYR102      0.2619
    154  O         28.0770   49.9340   41.4740 O.2   102  TYR102     -0.2715
    155  CB        26.4040   51.8290   43.2650 C.3   102  TYR102      0.0574
    156  CG        25.9160   53.1870   43.6470 C.ar  102  TYR102     -0.0198
    157  CD1       26.4810   53.8690   44.7260 C.ar  102  TYR102     -0.0009
    158  CD2       24.8960   53.8090   42.9290 C.ar  102  TYR102     -0.0009
    159  CE1       26.0480   55.1420   45.0790 C.ar  102  TYR102      0.0417
    160  CE2       24.4460   55.0870   43.2730 C.ar  102  TYR102      0.0417
    161  CZ        25.0300   55.7500   44.3470 C.ar  102  TYR102      0.1957
    162  OH        24.6320   57.0360   44.6790 O.3   102  TYR102     -0.2866
    163  N         28.7940   49.6080   43.5550 N.am  103  HIS103     -0.1973
    164  CA        29.1380   48.2170   43.2940 C.3   103  HIS103      0.1656
    165  C         28.3180   47.2760   44.1310 C.2   103  HIS103      0.2291
    166  O         28.6620   46.9970   45.2760 O.2   103  HIS103     -0.2864
    167  CB        30.6120   47.9470   43.4910 C.3   103  HIS103      0.0771
    168  CG        31.3960   48.0580   42.2330 C.ar  103  HIS103      0.0820
    169  ND1       31.2890   47.1280   41.2240 N.ar  103  HIS103     -0.2267
    170  CD2       32.2460   49.0080   41.7830 C.ar  103  HIS103      0.1154
    171  CE1       32.0380   47.4960   40.2080 C.ar  103  HIS103      0.1986
    172  NE2       32.6320   48.6360   40.5180 N.ar  103  HIS103     -0.2212
@<TRIPOS>BOND
     1    48    47    2
     2    47    46    1
     3    50    49    1
     4    49    46    1
     5    49    51    1
     6    52    53    1
     7    46    45    1
     8    56    53    1
     9    56    57    1
    10    45    39   am
    11    53    54    1
    12    54    55    2
    13    59    57   am
    14    39    40    2
    15    39    38    1
    16    57    58    2
    17    37    38    1
    18    38    41    1
    19    60    61    1
    20    44    42    1
    21    41    42    1
    22    42    43    1
    23    36    34   ar
    24    33    34    1
    25    33    32    1
    26    61    64    1
    27    61    62    1
    28    64    65    1
    29    31    30    2
    30    29    28    1
    31    29    32    1
    32    29    30    1
    33    62    63    2
    34    34    35   ar
    35    65    67   ar
    36    65    66   ar
    37    67    69   ar
    38    71    72    1
    39    66    68   ar
    40    87    86    1
    41    77    75    1
    42    69    70   ar
    43    88    86    1
    44    86    85    2
    45    72    75    1
    46    72    73    1
    47    21    22    1
    48    75    76    1
    49    68    70   ar
    50    24    23    2
    51    78    73   am
    52    78    79    1
    53    22    23    1
    54    22    25    1
    55    85    84    1
    56    82    79    1
    57    82    83    1
    58    73    74    2
    59    84    83    1
    60    79    80    1
    61     7     8    1
    62    80    81    2
    63     8     9    1
    64     8    11    1
    65    10     9    2
    66    27    25    1
    67    25    26    1
    68     9    12   am
    69    14    15    2
    70    14    13    1
    71    12    13    1
    72    13    16    1
    73    89    90    1
    74     4     3    2
    75    16    17    1
    76     1     2    1
    77     3     2    1
    78    94    95    1
    79    94    96    1
    80    94    93    1
    81     2     5    1
    82    90    93    1
    83    90    91    1
    84   133   132   ar
    85   133   131   ar
    86   132   130   ar
    87    17    18    1
    88    91    92    2
    89   114   113    1
    90   114   115    1
    91   131   129   ar
    92   130   128   ar
    93     5     6    1
    94   116   115    2
    95    18    20   ar
    96    18    19   ar
    97   113   107   am
    98   108   107    2
    99   115   117   am
   100   107   106    1
   101   129   128   ar
   102   128   127    1
   103   106   105    1
   104   106   109    1
   105   117   118    1
   106   111   110    2
   107   127   124    1
   108   109   110    1
   109   118   119    1
   110   118   121    1
   111   120   119    2
   112   150   148    1
   113   110   112   am
   114   119   123   am
   115   123   124    1
   116   124   125    1
   117   148   147    1
   118   122   121    1
   119    97    98    1
   120    99    98    1
   121    99   100    2
   122   125   126    2
   123   125   134   am
   124    98   101    1
   125   149   147    1
   126   147   144    1
   127   101   102    1
   128   134   135    1
   129   102   103    1
   130   171   172   ar
   131   171   169   ar
   132   137   136    2
   133   144   143    1
   134   144   145    1
   135   172   170   ar
   136   143   136   am
   137   136   135    1
   138   135   138    1
   139   169   168   ar
   140   154   153    2
   141   145   151   am
   142   145   146    2
   143   104   103    1
   144   170   168   ar
   145   151   152    1
   146   138   139    1
   147   168   167    1
   148   153   152    1
   149   153   163   am
   150   158   160   ar
   151   158   156   ar
   152   152   155    1
   153   155   156    1
   154   160   161   ar
   155   164   167    1
   156   164   163    1
   157   164   165    1
   158   139   140    1
   159   156   157   ar
   160   165   166    2
   161   161   162    1
   162   161   159   ar
   163   140   141    1
   164   157   159   ar
   165   141   142    1
