@<TRIPOS>MOLECULE
tmp/1htmB00.pdb
 103 97 0 0 0
SMALL
GASTEIGER

@<TRIPOS>ATOM
      1  N         40.6990   39.9990   28.6200 N.3    54  SER54      -0.1217
      2  CA        41.9320   39.5580   27.9760 C.3    54  SER54       0.1889
      3  C         42.1230   40.2690   26.6300 C.2    54  SER54       0.2288
      4  O         43.2430   40.3780   26.1250 O.2    54  SER54      -0.2866
      5  CB        41.9270   38.0430   27.8220 C.3    54  SER54       0.2089
      6  OG        42.1920   37.6450   26.4850 O.3    54  SER54      -0.2183
      7  N         43.5180   43.8910   27.5150 N.3    57  ALA57      -0.1231
      8  CA        44.9640   43.8600   27.7240 C.3    57  ALA57       0.1694
      9  C         45.6720   43.7500   26.3780 C.2    57  ALA57       0.2591
     10  O         46.6240   44.4800   26.1140 O.2    57  ALA57      -0.2718
     11  CB        45.3490   42.7010   28.5880 C.3    57  ALA57       0.0304
     12  N         45.1950   42.8510   25.5200 N.am   58  GLU58      -0.1979
     13  CA        45.7660   42.6550   24.1890 C.3    58  GLU58       0.1602
     14  C         45.7550   43.9320   23.3740 C.2    58  GLU58       0.2287
     15  O         46.7670   44.2930   22.7890 O.2    58  GLU58      -0.2864
     16  CB        45.0060   41.5800   23.4330 C.3    58  GLU58       0.0415
     17  CG        45.2410   40.1820   23.9530 C.3    58  GLU58       0.1163
     18  CD        44.4080   39.1410   23.2220 C.2    58  GLU58       0.3649
     19  OE1       44.3810   39.1740   21.9630 O.co2  58  GLU58      -0.2457
     20  OE2       43.7800   38.2810   23.9000 O.co2  58  GLU58      -0.2457
     21  N         48.4500   46.0740   24.6030 N.3    61  VAL61      -0.1245
     22  CA        49.7230   45.5350   24.2010 C.3    61  VAL61       0.1561
     23  C         49.9050   45.7290   22.6850 C.2    61  VAL61       0.2260
     24  O         51.0230   45.8040   22.2020 O.2    61  VAL61      -0.2867
     25  CB        49.8320   44.0500   24.6540 C.3    61  VAL61       0.0252
     26  CG1       51.0460   43.3490   24.0540 C.3    61  VAL61       0.0019
     27  CG2       49.9280   44.0020   26.1670 C.3    61  VAL61       0.0019
     28  N         46.1950   49.9890   32.1050 N.3    80  PHE80      -0.1241
     29  CA        46.9270   48.7750   31.8210 C.3    80  PHE80       0.1605
     30  C         46.9660   47.7920   32.9650 C.2    80  PHE80       0.2264
     31  O         46.8650   46.5750   32.7360 O.2    80  PHE80      -0.2867
     32  CB        48.3410   49.0180   31.4490 C.3    80  PHE80       0.0534
     33  CG        49.0660   47.7640   31.1770 C.ar   80  PHE80      -0.0203
     34  CD1       48.7070   46.9810   30.0860 C.ar   80  PHE80      -0.0042
     35  CD2       50.1160   47.3730   31.9830 C.ar   80  PHE80      -0.0042
     36  CE1       49.4020   45.8090   29.7810 C.ar   80  PHE80      -0.0003
     37  CE2       50.8310   46.2050   31.7060 C.ar   80  PHE80      -0.0003
     38  CZ        50.4730   45.4140   30.5910 C.ar   80  PHE80      -0.0000
     39  N         45.7220   43.8530   33.6990 N.3    84  ARG84      -0.1245
     40  CA        46.7060   42.8570   34.1300 C.3    84  ARG84       0.1563
     41  C         46.3080   42.1540   35.4570 C.2    84  ARG84       0.2260
     42  O         46.7410   41.0220   35.7340 O.2    84  ARG84      -0.2867
     43  CB        48.0580   43.5420   34.2680 C.3    84  ARG84       0.0307
     44  CG        49.1860   42.6460   34.6890 C.3    84  ARG84       0.0489
     45  CD        50.4110   43.4830   35.0080 C.3    84  ARG84       0.2205
     46  NE        51.5350   43.2890   34.0880 N.pl3  84  ARG84      -0.0865
     47  CZ        52.8090   43.3080   34.4680 C.cat  84  ARG84       0.5346
     48  NH1       53.1200   43.5410   35.7420 N.pl3  84  ARG84       0.1354
     49  NH2       53.7740   43.1140   33.5810 N.pl3  84  ARG84       0.1354
     50  N         43.7260   39.5270   34.7340 N.3    87  LEU87      -0.1245
     51  CA        44.4500   38.4010   34.1600 C.3    87  LEU87       0.1561
     52  C         45.0770   37.5310   35.2310 C.2    87  LEU87       0.2260
     53  O         44.9800   36.3170   35.1620 O.2    87  LEU87      -0.2867
     54  CB        45.5120   38.8730   33.1660 C.3    87  LEU87       0.0270
     55  CG        44.9660   39.1910   31.7740 C.3    87  LEU87       0.0019
     56  CD1       46.0530   39.8330   30.9190 C.3    87  LEU87       0.0001
     57  CD2       44.4670   37.9040   31.1450 C.3    87  LEU87       0.0001
     58  N         52.1680   32.1450   33.8300 N.3    94  MET94      -0.1245
     59  CA        53.2600   31.2990   33.3670 C.3    94  MET94       0.1570
     60  C         54.5310   32.0570   33.6910 C.2    94  MET94       0.2261
     61  O         54.6230   32.7250   34.7280 O.2    94  MET94      -0.2867
     62  CB        53.1680   31.0920   31.8510 C.3    94  MET94       0.0387
     63  CG        51.7980   30.6670   31.3550 C.3    94  MET94       0.0595
     64  SD        51.1510   29.1840   32.1730 S.3    94  MET94      -0.1393
     65  CE        52.3080   27.9300   31.5470 C.3    94  MET94       0.0692
     66  N         54.9140   37.6130   32.8050 N.3    97  GLY97      -0.1210
     67  CA        54.4700   38.3270   31.6210 C.3    97  GLY97       0.1956
     68  C         53.6820   37.5000   30.6260 C.2    97  GLY97       0.2612
     69  O         53.5990   37.8690   29.4560 O.2    97  GLY97      -0.2717
     70  N         53.0780   36.4090   31.1010 N.am   98  CYS98      -0.1956
     71  CA        52.2580   35.4980   30.2870 C.3    98  CYS98       0.1843
     72  C         51.0760   34.9740   31.0950 C.2    98  CYS98       0.2625
     73  O         51.1000   34.9880   32.3280 O.2    98  CYS98      -0.2714
     74  CB        53.0790   34.3090   29.7870 C.3    98  CYS98       0.0997
     75  SG        54.2280   34.7270   28.4400 S.3    98  CYS98      -0.0797
     76  N         50.0360   34.5220   30.4090 N.am   99  PHE99      -0.1960
     77  CA        48.8630   34.0030   31.0880 C.3    99  PHE99       0.1771
     78  C         48.2200   32.8970   30.2860 C.2    99  PHE99       0.2619
     79  O         48.2400   32.9220   29.0550 O.2    99  PHE99      -0.2715
     80  CB        47.8320   35.1000   31.2960 C.3    99  PHE99       0.0574
     81  CG        48.2790   36.1750   32.2120 C.ar   99  PHE99      -0.0200
     82  CD1       48.0480   36.0810   33.5750 C.ar   99  PHE99      -0.0042
     83  CD2       48.9220   37.2970   31.7160 C.ar   99  PHE99      -0.0042
     84  CE1       48.4490   37.0960   34.4320 C.ar   99  PHE99      -0.0003
     85  CE2       49.3280   38.3160   32.5600 C.ar   99  PHE99      -0.0003
     86  CZ        49.0910   38.2170   33.9240 C.ar   99  PHE99      -0.0000
     87  N         47.6560   31.9240   30.9940 N.am  100  LYS100     -0.1963
     88  CA        46.9550   30.8070   30.3740 C.3   100  LYS100      0.1728
     89  C         45.5030   30.8750   30.8660 C.2   100  LYS100      0.2616
     90  O         45.2070   30.6010   32.0380 O.2   100  LYS100     -0.2715
     91  CB        47.6140   29.4820   30.7630 C.3   100  LYS100      0.0311
     92  CG        47.6280   28.4670   29.6360 C.3   100  LYS100      0.0038
     93  CD        48.4650   27.2480   29.9920 C.3   100  LYS100      0.0206
     94  CE        48.4290   26.2340   28.8560 C.3   100  LYS100      0.1093
     95  NZ        48.9180   24.8850   29.2680 N.3   100  LYS100     -0.1314
     96  N         44.6270   31.3310   29.9740 N.am  101  ILE101     -0.1977
     97  CA        43.2020   31.4950   30.2530 C.3   101  ILE101      0.1596
     98  C         42.4180   30.2040   30.0520 C.2   101  ILE101      0.2287
     99  O         42.2010   29.7600   28.9170 O.2   101  ILE101     -0.2864
    100  CB        42.6100   32.6070   29.3630 C.3   101  ILE101      0.0276
    101  CG1       43.2330   33.9350   29.7550 C.3   101  ILE101      0.0022
    102  CG2       41.0890   32.6590   29.4490 C.3   101  ILE101      0.0022
    103  CD1       42.8360   35.0420   28.8640 C.3   101  ILE101      0.0001
@<TRIPOS>BOND
     1    19    18   ar
     2    24    23    2
     3    23    22    1
     4    15    14    2
     5    18    20   ar
     6    18    17    1
     7    14    13    1
     8    16    17    1
     9    16    13    1
    10    26    25    1
    11    13    12    1
    12    22    21    1
    13    22    25    1
    14    25    27    1
    15    12     9   am
    16    10     9    2
    17     4     3    2
    18     9     8    1
    19     6     5    1
    20     3     2    1
    21     7     8    1
    22     8    11    1
    23     5     2    1
    24     2     1    1
    25    75    74    1
    26    94    95    1
    27    94    93    1
    28   103   101    1
    29    99    98    2
    30    79    78    2
    31   100   102    1
    32   100   101    1
    33   100    97    1
    34    69    68    2
    35    92    93    1
    36    92    91    1
    37    36    34   ar
    38    36    38   ar
    39    74    71    1
    40    96    97    1
    41    96    89   am
    42    98    97    1
    43    34    33   ar
    44    78    87   am
    45    78    77    1
    46    71    72    1
    47    71    70    1
    48    88    91    1
    49    88    89    1
    50    88    87    1
    51    76    77    1
    52    76    72   am
    53    38    37   ar
    54    68    70   am
    55    68    67    1
    56    89    90    2
    57    56    55    1
    58    77    80    1
    59    72    73    2
    60    57    55    1
    61    33    32    1
    62    33    35   ar
    63    80    81    1
    64    63    62    1
    65    63    64    1
    66    32    29    1
    67    65    64    1
    68    67    66    1
    69    37    35   ar
    70    83    81   ar
    71    83    85   ar
    72    55    54    1
    73    29    28    1
    74    29    30    1
    75    62    59    1
    76    81    82   ar
    77    85    86   ar
    78    31    30    2
    79    54    51    1
    80    59    60    1
    81    59    58    1
    82    82    84   ar
    83    49    47    1
    84    60    61    2
    85    39    40    1
    86    86    84   ar
    87    46    47    2
    88    46    45    1
    89    40    43    1
    90    40    41    1
    91    51    50    1
    92    51    52    1
    93    43    44    1
    94    47    48    1
    95    44    45    1
    96    53    52    2
    97    41    42    2
