@<TRIPOS>MOLECULE
tmp/1htpA00.pdb
 132 128 0 0 0
SMALL
GASTEIGER

@<TRIPOS>ATOM
      1  N         -2.5460   19.4420   10.7880 N.3    11  PRO11      -0.2102
      2  CA        -2.2210   20.6630   10.0680 C.3    11  PRO11       0.1504
      3  C         -2.6770   20.6460    8.6230 C.2    11  PRO11       0.2576
      4  O         -3.0210   21.6770    8.0450 O.2    11  PRO11      -0.2718
      5  CB        -0.7290   20.7890   10.1780 C.3    11  PRO11       0.0282
      6  CG        -0.4920   20.2860   11.5530 C.3    11  PRO11       0.0208
      7  CD        -1.3860   19.0530   11.5550 C.3    11  PRO11       0.0893
      8  N         -2.7360   19.4760    7.9990 N.am   12  SER12      -0.1938
      9  CA        -3.0900   19.4130    6.6030 C.3    12  SER12       0.2055
     10  C         -4.5880   19.4420    6.3920 C.2    12  SER12       0.2643
     11  O         -5.0370   19.2300    5.2860 O.2    12  SER12      -0.2714
     12  CB        -2.4420   18.1710    6.0330 C.3    12  SER12       0.2130
     13  OG        -2.4360   17.0610    6.9700 O.3    12  SER12      -0.2179
     14  N         -5.4020   19.7420    7.4150 N.am   13  HIS13      -0.1959
     15  CA        -6.8470   19.9730    7.3420 C.3    13  HIS13       0.1787
     16  C         -7.7590   18.7830    7.1970 C.2    13  HIS13       0.2620
     17  O         -8.7890   18.7890    6.5370 O.2    13  HIS13      -0.2715
     18  CB        -7.1150   21.0200    6.2320 C.3    13  HIS13       0.0785
     19  CG        -6.4230   22.3440    6.5850 C.ar   13  HIS13       0.0821
     20  ND1       -6.5870   23.1000    7.6680 N.ar   13  HIS13      -0.2267
     21  CD2       -5.4210   22.9240    5.8580 C.ar   13  HIS13       0.1154
     22  CE1       -5.7260   24.0780    7.6130 C.ar   13  HIS13       0.1986
     23  NE2       -5.0260   23.9770    6.5270 N.ar   13  HIS13      -0.2212
     24  N         -7.4380   17.7600    7.9930 N.am   14  GLU14      -0.1977
     25  CA        -8.2390   16.5430    8.1170 C.3    14  GLU14       0.1602
     26  C         -8.5790   16.4040    9.5690 C.2    14  GLU14       0.2287
     27  O         -7.7190   16.7500   10.3920 O.2    14  GLU14      -0.2864
     28  CB        -7.5030   15.2790    7.7470 C.3    14  GLU14       0.0415
     29  CG        -7.1100   15.2820    6.3130 C.3    14  GLU14       0.1163
     30  CD        -5.6860   15.6890    6.0800 C.2    14  GLU14       0.3649
     31  OE1       -4.9270   15.9600    7.0090 O.co2  14  GLU14      -0.2457
     32  OE2       -5.3200   15.7030    4.9190 O.co2  14  GLU14      -0.2457
     33  N        -12.1140   15.8280    5.7520 N.3    27  ILE27      -0.1245
     34  CA       -11.3830   17.1140    5.7200 C.3    27  ILE27       0.1561
     35  C        -12.2650   18.2280    6.3310 C.2    27  ILE27       0.2260
     36  O        -13.4990   18.1760    6.3370 O.2    27  ILE27      -0.2867
     37  CB       -11.0200   17.5230    4.3010 C.3    27  ILE27       0.0252
     38  CG1      -12.2790   17.7930    3.4830 C.3    27  ILE27       0.0019
     39  CG2      -10.1560   16.4410    3.7150 C.3    27  ILE27       0.0019
     40  CD1      -11.9550   18.4150    2.1370 C.3    27  ILE27       0.0001
     41  N        -12.6950   24.3530    6.5730 N.3    30  HIS30      -0.1226
     42  CA       -11.6350   25.2030    6.0690 C.3    30  HIS30       0.1752
     43  C        -11.1310   24.6210    4.7800 C.2    30  HIS30       0.2595
     44  O        -11.0830   25.3110    3.7720 O.2    30  HIS30      -0.2718
     45  CB       -10.4730   25.2900    7.0890 C.3    30  HIS30       0.0759
     46  CG        -9.2820   26.1510    6.6640 C.ar   30  HIS30       0.0818
     47  ND1       -8.1100   25.7390    6.1700 N.ar   30  HIS30      -0.2268
     48  CD2       -9.2870   27.5120    6.7000 C.ar   30  HIS30       0.1154
     49  CE1       -7.4270   26.8230    5.9100 C.ar   30  HIS30       0.1986
     50  NE2       -8.1280   27.8680    6.2210 N.ar   30  HIS30      -0.2212
     51  N        -10.8020   23.3210    4.8000 N.am   31  ALA31      -0.1980
     52  CA       -10.2480   22.6310    3.6600 C.3    31  ALA31       0.1597
     53  C        -11.2170   22.6930    2.5000 C.2    31  ALA31       0.2287
     54  O        -10.7900   23.1320    1.4400 O.2    31  ALA31      -0.2864
     55  CB        -9.9790   21.1810    4.0340 C.3    31  ALA31       0.0319
     56  N        -11.4550   26.3210    0.8630 N.3    34  HIS34      -0.1226
     57  CA       -10.2910   26.6260    0.0590 C.3    34  HIS34       0.1752
     58  C        -10.1500   25.7410   -1.1690 C.2    34  HIS34       0.2595
     59  O         -9.3930   26.0770   -2.0690 O.2    34  HIS34      -0.2718
     60  CB        -9.0440   26.4920    0.8980 C.3    34  HIS34       0.0759
     61  CG        -8.8910   27.6680    1.8300 C.ar   34  HIS34       0.0818
     62  ND1       -9.6300   28.0100    2.8700 N.ar   34  HIS34      -0.2268
     63  CD2       -7.8600   28.5600    1.7620 C.ar   34  HIS34       0.1154
     64  CE1       -9.0680   29.0530    3.4340 C.ar   34  HIS34       0.1986
     65  NE2       -8.0010   29.3810    2.7670 N.ar   34  HIS34      -0.2212
     66  N        -10.8830   24.6330   -1.2730 N.am   35  LEU35      -0.1980
     67  CA       -10.7890   23.7100   -2.4060 C.3    35  LEU35       0.1596
     68  C        -11.7560   24.1550   -3.4740 C.2    35  LEU35       0.2287
     69  O        -11.4640   23.9990   -4.6570 O.2    35  LEU35      -0.2864
     70  CB       -11.1650   22.2900   -1.9850 C.3    35  LEU35       0.0297
     71  CG       -10.0990   21.3570   -1.5180 C.3    35  LEU35       0.0022
     72  CD1      -10.7570   20.1470   -0.8880 C.3    35  LEU35       0.0001
     73  CD2       -9.2380   20.9320   -2.7070 C.3    35  LEU35       0.0001
     74  N         -8.6490   14.4190   -3.1300 N.3    59  VAL59      -0.1245
     75  CA        -9.9210   15.0820   -3.3570 C.3    59  VAL59       0.1561
     76  C         -9.6190   16.0510   -4.5070 C.2    59  VAL59       0.2260
     77  O         -8.5740   16.7150   -4.5460 O.2    59  VAL59      -0.2867
     78  CB       -10.3590   15.6990   -1.9580 C.3    59  VAL59       0.0252
     79  CG1       -9.3550   16.6510   -1.3580 C.3    59  VAL59       0.0019
     80  CG2      -11.6570   16.4180   -2.1770 C.3    59  VAL59       0.0019
     81  N        -10.6120   23.4770   -8.9650 N.3    63  LYS63      -0.1231
     82  CA        -9.3290   24.1140   -9.0570 C.3    63  LYS63       0.1693
     83  C         -8.1270   23.3500   -8.5530 C.2    63  LYS63       0.2591
     84  O         -7.0010   23.7550   -8.8840 O.2    63  LYS63      -0.2718
     85  CB        -9.3780   25.4120   -8.3150 C.3    63  LYS63       0.0285
     86  CG        -9.5750   25.3050   -6.8020 C.3    63  LYS63       0.0035
     87  CD        -9.6010   26.7030   -6.2140 C.3    63  LYS63       0.0206
     88  CE        -8.1630   27.0300   -5.9420 C.3    63  LYS63       0.1093
     89  NZ        -7.9210   26.4370   -4.6670 N.3    63  LYS63      -0.1314
     90  N         -8.2300   22.2790   -7.7590 N.am   64  ALA64      -0.1980
     91  CA        -7.0210   21.6430   -7.2300 C.3    64  ALA64       0.1597
     92  C         -7.2430   20.1640   -7.1080 C.2    64  ALA64       0.2287
     93  O         -8.3680   19.7120   -7.2810 O.2    64  ALA64      -0.2864
     94  CB        -6.6780   22.1500   -5.8320 C.3    64  ALA64       0.0319
     95  N         -5.9140   17.6330   -4.0990 N.3    66  SER66      -0.1202
     96  CA        -4.9980   17.4750   -2.9770 C.3    66  SER66       0.2020
     97  C         -5.1130   16.0770   -2.3780 C.2    66  SER66       0.2619
     98  O         -6.1170   15.3640   -2.4940 O.2    66  SER66      -0.2717
     99  CB        -5.2730   18.4900   -1.8430 C.3    66  SER66       0.2103
    100  OG        -6.1830   19.5030   -2.2520 O.3    66  SER66      -0.2182
    101  N         -4.0140   15.7090   -1.7520 N.am   67  ASP67      -0.1959
    102  CA        -3.8960   14.4670   -1.0140 C.3    67  ASP67       0.1840
    103  C         -4.6460   14.6330    0.2710 C.2    67  ASP67       0.2622
    104  O         -4.6250   15.7330    0.8090 O.2    67  ASP67      -0.2715
    105  CB        -2.4420   14.1650   -0.6230 C.3    67  ASP67       0.1450
    106  CG        -1.5070   13.7350   -1.7390 C.2    67  ASP67       0.3671
    107  OD1       -1.9890   13.2020   -2.7400 O.co2  67  ASP67      -0.2456
    108  OD2       -0.2960   13.9240   -1.5960 O.co2  67  ASP67      -0.2456
    109  N         -5.2810   13.5850    0.7600 N.am   68  VAL68      -0.1963
    110  CA        -5.8780   13.6590    2.0570 C.3    68  VAL68       0.1727
    111  C         -5.0440   12.6570    2.8010 C.2    68  VAL68       0.2616
    112  O         -4.9870   11.4950    2.3860 O.2    68  VAL68      -0.2715
    113  CB        -7.3020   13.2080    2.0520 C.3    68  VAL68       0.0290
    114  CG1       -7.8790   13.5430    3.3960 C.3    68  VAL68       0.0023
    115  CG2       -8.0740   13.8630    0.9650 C.3    68  VAL68       0.0023
    116  N         -4.3600   13.0830    3.8550 N.am   69  ASN69      -0.1972
    117  CA        -3.5560   12.1850    4.6780 C.3    69  ASN69       0.1688
    118  C         -4.3040   11.7080    5.9020 C.2    69  ASN69       0.2292
    119  O         -5.2490   12.3410    6.4030 O.2    69  ASN69      -0.2864
    120  CB        -2.3010   12.8460    5.1380 C.3    69  ASN69       0.1181
    121  CG        -1.5500   13.3800    3.9360 C.2    69  ASN69       0.2629
    122  OD1       -1.6080   12.8760    2.8130 O.2    69  ASN69      -0.2716
    123  ND2       -0.8580   14.4740    4.1410 N.am   69  ASN69      -0.0877
    124  N         -3.0030   31.0140    9.2080 N.3   127  GLU127     -0.1245
    125  CA        -2.9100   30.7830    7.7760 C.3   127  GLU127      0.1567
    126  C         -3.6650   31.7930    6.9490 C.2   127  GLU127      0.2260
    127  O         -3.1530   32.2030    5.9060 O.2   127  GLU127     -0.2867
    128  CB        -3.4300   29.3950    7.3640 C.3   127  GLU127      0.0388
    129  CG        -2.3570   28.3410    7.5930 C.3   127  GLU127      0.1160
    130  CD        -2.6490   27.0340    6.8870 C.2   127  GLU127      0.3649
    131  OE1       -3.8060   26.6010    6.9180 O.co2 127  GLU127     -0.2457
    132  OE2       -1.7190   26.4680    6.3080 O.co2 127  GLU127     -0.2457
@<TRIPOS>BOND
     1    82    81    1
     2    82    83    1
     3    82    85    1
     4    84    83    2
     5    83    90   am
     6    85    86    1
     7    90    91    1
     8    93    92    2
     9    91    92    1
    10    91    94    1
    11    86    87    1
    12    87    88    1
    13    88    89    1
    14    69    68    2
    15    77    76    2
    16    76    75    1
    17    95    96    1
    18    68    67    1
    19    75    74    1
    20    75    78    1
    21    96    97    1
    22    96    99    1
    23   107   106   ar
    24    73    71    1
    25    98    97    2
    26    67    70    1
    27    67    66    1
    28    97   101   am
    29   100    99    1
    30    80    78    1
    31    59    58    2
    32    70    71    1
    33    78    79    1
    34   101   102    1
    35   106   108   ar
    36   106   105    1
    37    71    72    1
    38    66    58   am
    39    58    57    1
    40   102   105    1
    41   102   103    1
    42    57    56    1
    43    57    60    1
    44   103   109   am
    45   103   104    2
    46   109   110    1
    47    60    61    1
    48   115   113    1
    49    54    53    2
    50    63    61   ar
    51    63    65   ar
    52    61    62   ar
    53   113   110    1
    54   113   114    1
    55   110   111    1
    56    40    38    1
    57   112   111    2
    58    53    52    1
    59    65    64   ar
    60   111   116   am
    61   122   121    2
    62    62    64   ar
    63    38    37    1
    64    52    55    1
    65    52    51    1
    66    39    37    1
    67    44    43    2
    68   116   117    1
    69   121   123   am
    70   121   120    1
    71    37    34    1
    72   117   120    1
    73   117   118    1
    74    43    51   am
    75    43    42    1
    76    32    30   ar
    77    11    10    2
    78    34    33    1
    79    34    35    1
    80    21    23   ar
    81    21    19   ar
    82   118   119    2
    83   127   126    2
    84    49    47   ar
    85    49    50   ar
    86    12     9    1
    87    12    13    1
    88    42    41    1
    89    42    45    1
    90    30    29    1
    91    30    31   ar
    92    47    46   ar
    93    50    48   ar
    94    18    19    1
    95    18    15    1
    96   132   130   ar
    97    29    28    1
    98    35    36    2
    99    10     9    1
   100    10    14   am
   101    23    22   ar
   102    17    16    2
   103    19    20   ar
   104     9     8    1
   105    46    48   ar
   106    46    45    1
   107   130   131   ar
   108   130   129    1
   109   126   125    1
   110    16    15    1
   111    16    24   am
   112    15    14    1
   113   128   129    1
   114   128   125    1
   115    22    20   ar
   116    28    25    1
   117   125   124    1
   118    24    25    1
   119     8     3   am
   120     4     3    2
   121    25    26    1
   122     3     2    1
   123    26    27    2
   124     2     5    1
   125     2     1    1
   126     5     6    1
   127     1     7    1
   128     6     7    1
