@<TRIPOS>MOLECULE
tmp/1httC01.pdb
 172 162 0 0 0
SMALL
GASTEIGER

@<TRIPOS>ATOM
      1  N          2.7490   12.3920  -10.7330 N.3    59  VAL59      -0.1245
      2  CA         3.4580   11.1140  -10.6990 C.3    59  VAL59       0.1561
      3  C          3.3300   10.5290   -9.2970 C.2    59  VAL59       0.2260
      4  O          2.8410    9.4140   -9.1340 O.2    59  VAL59      -0.2867
      5  CB         4.9720   11.2930  -11.0160 C.3    59  VAL59       0.0252
      6  CG1        5.6190    9.9220  -11.1310 C.3    59  VAL59       0.0019
      7  CG2        5.1590   12.1550  -12.2550 C.3    59  VAL59       0.0019
      8  N         10.1370    6.7210  -13.6850 N.3    80  GLU80      -0.1245
      9  CA        11.1760    7.4050  -14.4280 C.3    80  GLU80       0.1567
     10  C         12.5310    6.8920  -13.9010 C.2    80  GLU80       0.2260
     11  O         12.5650    6.3630  -12.7860 O.2    80  GLU80      -0.2867
     12  CB        10.9640    8.9170  -14.2240 C.3    80  GLU80       0.0388
     13  CG        10.9400    9.4530  -12.7950 C.3    80  GLU80       0.1160
     14  CD        12.2770   10.0210  -12.4140 C.2    80  GLU80       0.3649
     15  OE1       13.1670    9.3280  -11.9310 O.co2  80  GLU80      -0.2457
     16  OE2       12.4120   11.2030  -12.6460 O.co2  80  GLU80      -0.2457
     17  N          3.6450    3.6430  -15.3330 N.3   110  ARG110     -0.1245
     18  CA         2.8420    4.7370  -14.7890 C.3   110  ARG110      0.1563
     19  C          1.3810    4.4220  -14.9610 C.2   110  ARG110      0.2260
     20  O          0.8980    4.0310  -16.0310 O.2   110  ARG110     -0.2867
     21  CB         3.1180    6.0670  -15.4770 C.3   110  ARG110      0.0307
     22  CG         4.3990    6.7160  -14.9440 C.3   110  ARG110      0.0489
     23  CD         4.7020    7.9730  -15.7250 C.3   110  ARG110      0.2205
     24  NE         6.0380    8.5210  -15.5010 N.pl3 110  ARG110     -0.0865
     25  CZ         6.3960    9.6950  -16.0540 C.cat 110  ARG110      0.5346
     26  NH1        5.5710   10.4210  -16.8110 N.pl3 110  ARG110      0.1354
     27  NH2        7.6150   10.1540  -15.8410 N.pl3 110  ARG110      0.1354
     28  N         -1.7080    5.3750  -15.7600 N.3   112  GLU112     -0.1245
     29  CA        -2.4690    6.4360  -16.3610 C.3   112  GLU112      0.1567
     30  C         -3.3280    5.9540  -17.4840 C.2   112  GLU112      0.2260
     31  O         -3.2330    4.8120  -17.9250 O.2   112  GLU112     -0.2867
     32  CB        -1.5780    7.5190  -16.8750 C.3   112  GLU112      0.0388
     33  CG        -0.2610    7.1040  -17.4660 C.3   112  GLU112      0.1160
     34  CD         0.5570    8.3090  -17.8670 C.2   112  GLU112      0.3649
     35  OE1        0.7500    9.2400  -17.0740 O.co2 112  GLU112     -0.2457
     36  OE2        0.9950    8.2820  -19.0120 O.co2 112  GLU112     -0.2457
     37  N         -0.3350    8.3260  -27.2770 N.3   117  GLY117     -0.1210
     38  CA         1.0250    8.4860  -26.8320 C.3   117  GLY117      0.1956
     39  C          1.2810    7.7380  -25.5290 C.2   117  GLY117      0.2612
     40  O          2.4230    7.3560  -25.2750 O.2   117  GLY117     -0.2717
     41  N          0.2560    7.5440  -24.6750 N.am  118  ARG118     -0.1965
     42  CA         0.4650    7.0550  -23.3200 C.3   118  ARG118      0.1729
     43  C          0.0980    5.6150  -23.0580 C.2   118  ARG118      0.2616
     44  O         -1.0090    5.1760  -23.4000 O.2   118  ARG118     -0.2715
     45  CB        -0.3110    7.8550  -22.3440 C.3   118  ARG118      0.0348
     46  CG        -0.1430    9.3340  -22.5580 C.3   118  ARG118      0.0492
     47  CD        -0.4690   10.0820  -21.2660 C.3   118  ARG118      0.2205
     48  NE        -1.6990    9.6300  -20.6190 N.pl3 118  ARG118     -0.0865
     49  CZ        -2.8840   10.2200  -20.8040 C.cat 118  ARG118      0.5346
     50  NH1       -3.0530   11.3010  -21.5920 N.pl3 118  ARG118      0.1354
     51  NH2       -3.9260    9.6880  -20.1780 N.pl3 118  ARG118      0.1354
     52  N          1.0310    4.9100  -22.4140 N.am  119  TYR119     -0.1974
     53  CA         0.8680    3.5160  -22.0370 C.3   119  TYR119      0.1639
     54  C          1.2430    3.4110  -20.5590 C.2   119  TYR119      0.2290
     55  O          1.7040    4.3850  -19.9420 O.2   119  TYR119     -0.2864
     56  CB         1.7870    2.5800  -22.8620 C.3   119  TYR119      0.0560
     57  CG         1.6200    2.7870  -24.3650 C.ar  119  TYR119     -0.0198
     58  CD1        0.5430    2.1860  -25.0160 C.ar  119  TYR119     -0.0009
     59  CD2        2.4630    3.6570  -25.0750 C.ar  119  TYR119     -0.0009
     60  CE1        0.2780    2.4530  -26.3520 C.ar  119  TYR119      0.0417
     61  CE2        2.1970    3.9350  -26.4250 C.ar  119  TYR119      0.0417
     62  CZ         1.0970    3.3290  -27.0430 C.ar  119  TYR119      0.1957
     63  OH         0.7520    3.6120  -28.3380 O.3   119  TYR119     -0.2866
     64  N          5.8110    1.7080  -20.5140 N.3   122  PHE122     -0.1241
     65  CA         6.4530    2.3910  -21.6000 C.3   122  PHE122      0.1605
     66  C          7.9580    2.2530  -21.4370 C.2   122  PHE122      0.2264
     67  O          8.4470    1.6410  -20.4780 O.2   122  PHE122     -0.2867
     68  CB         6.0090    3.8300  -21.5950 C.3   122  PHE122      0.0534
     69  CG         6.3050    4.7160  -20.3950 C.ar  122  PHE122     -0.0203
     70  CD1        5.4180    4.7600  -19.3340 C.ar  122  PHE122     -0.0042
     71  CD2        7.4200    5.5590  -20.4020 C.ar  122  PHE122     -0.0042
     72  CE1        5.6490    5.6490  -18.2940 C.ar  122  PHE122     -0.0003
     73  CE2        7.6390    6.4490  -19.3520 C.ar  122  PHE122     -0.0003
     74  CZ         6.7480    6.4950  -18.2890 C.ar  122  PHE122     -0.0000
     75  N         11.9360    4.1010  -21.9500 N.3   124  GLN124     -0.1245
     76  CA        12.6940    5.3120  -22.1720 C.3   124  GLN124      0.1566
     77  C         14.1670    5.0340  -22.4580 C.2   124  GLN124      0.2260
     78  O         14.7170    4.0310  -21.9650 O.2   124  GLN124     -0.2867
     79  CB        12.6360    6.2450  -20.9350 C.3   124  GLN124      0.0367
     80  CG        11.3530    7.0160  -20.6750 C.3   124  GLN124      0.0905
     81  CD        11.4600    7.9670  -19.4920 C.2   124  GLN124      0.2608
     82  OE1       12.2130    7.7060  -18.5530 O.2   124  GLN124     -0.2717
     83  NE2       10.7840    9.1070  -19.4260 N.am  124  GLN124     -0.0878
     84  N          8.8120   21.9070  -16.0010 N.3   205  ARG205     -0.1231
     85  CA         8.5570   20.5090  -16.2890 C.3   205  ARG205      0.1694
     86  C          7.6630   19.9330  -15.1970 C.2   205  ARG205      0.2593
     87  O          7.3840   20.6250  -14.2140 O.2   205  ARG205     -0.2718
     88  CB         9.9130   19.8230  -16.4010 C.3   205  ARG205      0.0321
     89  CG        10.7080   20.4260  -17.5760 C.3   205  ARG205      0.0489
     90  CD        11.5050   19.3820  -18.2770 C.3   205  ARG205      0.2205
     91  NE        10.5550   18.4120  -18.7320 N.pl3 205  ARG205     -0.0865
     92  CZ        10.6660   17.1530  -18.3690 C.cat 205  ARG205      0.5346
     93  NH1       11.6740   16.7070  -17.6620 N.pl3 205  ARG205      0.1354
     94  NH2        9.7540   16.3050  -18.7430 N.pl3 205  ARG205      0.1354
     95  N          7.1910   18.6890  -15.3290 N.am  206  GLY206     -0.1942
     96  CA         6.2690   18.1270  -14.3650 C.3   206  GLY206      0.2014
     97  C          6.9210   17.4360  -13.1860 C.2   206  GLY206      0.2638
     98  O          6.2140   16.7280  -12.4850 O.2   206  GLY206     -0.2714
     99  N          8.2290   17.5590  -12.9140 N.am  207  LEU207     -0.1977
    100  CA         8.8690   16.8640  -11.7800 C.3   207  LEU207      0.1596
    101  C          9.5970   17.9130  -11.0040 C.2   207  LEU207      0.2287
    102  O         10.2150   18.7820  -11.6090 O.2   207  LEU207     -0.2864
    103  CB         9.9530   15.8760  -12.1560 C.3   207  LEU207      0.0297
    104  CG         9.7620   14.9580  -13.3130 C.3   207  LEU207      0.0022
    105  CD1       11.0630   14.2140  -13.4780 C.3   207  LEU207      0.0001
    106  CD2        8.5800   14.0350  -13.1110 C.3   207  LEU207      0.0001
    107  N         14.4160   19.7550  -11.0400 N.3   210  TYR210     -0.1241
    108  CA        15.1090   20.5490  -12.0350 C.3   210  TYR210      0.1605
    109  C         15.5080   21.9230  -11.5900 C.2   210  TYR210      0.2264
    110  O         14.7870   22.4840  -10.7670 O.2   210  TYR210     -0.2867
    111  CB        14.2770   20.7790  -13.2340 C.3   210  TYR210      0.0534
    112  CG        14.0600   19.4970  -13.9690 C.ar  210  TYR210     -0.0201
    113  CD1       15.1050   18.8410  -14.6170 C.ar  210  TYR210     -0.0009
    114  CD2       12.7730   18.9750  -13.9730 C.ar  210  TYR210     -0.0009
    115  CE1       14.8450   17.6330  -15.2800 C.ar  210  TYR210      0.0417
    116  CE2       12.5150   17.7850  -14.6330 C.ar  210  TYR210      0.0417
    117  CZ        13.5480   17.1210  -15.2690 C.ar  210  TYR210      0.1957
    118  OH        13.2310   15.9160  -15.8330 O.3   210  TYR210     -0.2866
    119  N          5.4610   15.6100  -26.8430 N.3   223  THR223     -0.1203
    120  CA         6.8240   15.6070  -26.4030 C.3   223  THR223      0.1994
    121  C          7.4590   14.2730  -26.6920 C.2   223  THR223      0.2618
    122  O          6.9000   13.2380  -26.3310 O.2   223  THR223     -0.2717
    123  CB         6.7580   15.9380  -24.9600 C.3   223  THR223      0.1784
    124  OG1        6.0170   17.1570  -24.9380 O.3   223  THR223     -0.2211
    125  CG2        8.0920   16.1590  -24.2840 C.3   223  THR223      0.0376
    126  N          8.5680   14.2580  -27.4240 N.am  224  VAL224     -0.1965
    127  CA         9.2460   12.9910  -27.7360 C.3   224  VAL224      0.1727
    128  C         10.4480   12.7620  -26.8100 C.2   224  VAL224      0.2616
    129  O         10.7640   11.6430  -26.4570 O.2   224  VAL224     -0.2715
    130  CB         9.7010   12.9820  -29.2190 C.3   224  VAL224      0.0290
    131  CG1       10.1000   11.5930  -29.6260 C.3   224  VAL224      0.0023
    132  CG2        8.5510   13.3390  -30.1400 C.3   224  VAL224      0.0023
    133  N         11.1170   13.8170  -26.3620 N.am  225  CYS225     -0.1954
    134  CA        12.2770   13.7590  -25.5110 C.3   225  CYS225      0.1843
    135  C         12.1040   14.9490  -24.5980 C.2   225  CYS225      0.2625
    136  O         11.6240   15.9950  -25.0520 O.2   225  CYS225     -0.2714
    137  CB        13.5710   13.9260  -26.3290 C.3   225  CYS225      0.0997
    138  SG        15.1880   13.9970  -25.4570 S.3   225  CYS225     -0.0797
    139  N         12.4800   14.8580  -23.3320 N.am  226  ALA226     -0.1977
    140  CA        12.3370   15.9640  -22.4040 C.3   226  ALA226      0.1597
    141  C         13.4140   15.8210  -21.3470 C.2   226  ALA226      0.2287
    142  O         13.8030   14.6800  -21.0590 O.2   226  ALA226     -0.2864
    143  CB        10.9670   15.8660  -21.7770 C.3   226  ALA226      0.0319
    144  N         15.3610   12.1730  -21.1000 N.3   248  ALA248     -0.1245
    145  CA        14.8320   10.8520  -21.3750 C.3   248  ALA248      0.1562
    146  C         13.8590   10.9620  -22.5190 C.2   248  ALA248      0.2260
    147  O         13.2070   11.9890  -22.7220 O.2   248  ALA248     -0.2867
    148  CB        14.1220   10.3230  -20.1790 C.3   248  ALA248      0.0290
    149  N         10.8360    9.0760  -25.0010 N.3   250  GLY250     -0.1225
    150  CA         9.8700    8.0270  -25.1130 C.3   250  GLY250      0.1811
    151  C         10.0700    7.2160  -26.3760 C.2   250  GLY250      0.2280
    152  O          9.5790    7.5950  -27.4610 O.2   250  GLY250     -0.2866
    153  N          8.4640    4.8570  -27.4820 N.3   252  GLU252     -0.1231
    154  CA         7.2430    4.5080  -28.1950 C.3   252  GLU252      0.1699
    155  C          6.8450    5.5920  -29.1480 C.2   252  GLU252      0.2592
    156  O          6.4170    5.2980  -30.2650 O.2   252  GLU252     -0.2718
    157  CB         6.0660    4.2960  -27.2980 C.3   252  GLU252      0.0402
    158  CG         6.0340    2.8850  -26.7470 C.3   252  GLU252      0.1161
    159  CD         6.7360    2.6720  -25.4290 C.2   252  GLU252      0.3649
    160  OE1        7.4900    3.5190  -24.9480 O.co2 252  GLU252     -0.2457
    161  OE2        6.5000    1.6190  -24.8780 O.co2 252  GLU252     -0.2457
    162  N          7.0320    6.8360  -28.7140 N.am  253  ARG253     -0.1980
    163  CA         6.7090    7.9790  -29.5490 C.3   253  ARG253      0.1597
    164  C          7.7130    8.1510  -30.7160 C.2   253  ARG253      0.2287
    165  O          7.3450    8.5630  -31.8380 O.2   253  ARG253     -0.2864
    166  CB         6.7020    9.2080  -28.6800 C.3   253  ARG253      0.0334
    167  CG         5.6130    9.1320  -27.6720 C.3   253  ARG253      0.0492
    168  CD         5.6880   10.1570  -26.5670 C.3   253  ARG253      0.2205
    169  NE         4.5490    9.8280  -25.7490 N.pl3 253  ARG253     -0.0865
    170  CZ         3.9830   10.6600  -24.8870 C.cat 253  ARG253      0.5346
    171  NH1        4.4430   11.9040  -24.6140 N.pl3 253  ARG253      0.1354
    172  NH2        2.8930   10.1710  -24.2710 N.pl3 253  ARG253      0.1354
@<TRIPOS>BOND
     1   165   164    2
     2   164   163    1
     3   156   155    2
     4   132   130    1
     5   131   130    1
     6   163   162    1
     7   163   166    1
     8   130   127    1
     9   155   162   am
    10   155   154    1
    11   166   167    1
    12    63    62    1
    13   154   153    1
    14   154   157    1
    15   127   126    1
    16   127   128    1
    17   167   168    1
    18   152   151    2
    19   126   121   am
    20   157   158    1
    21    37    38    1
    22    62    61   ar
    23    62    60   ar
    24   119   120    1
    25    38    39    1
    26   128   129    2
    27   128   133   am
    28   158   159    1
    29   121   120    1
    30   121   122    2
    31   168   169    1
    32    61    59   ar
    33   120   123    1
    34   151   150    1
    35   133   134    1
    36    60    58   ar
    37   137   134    1
    38   137   138    1
    39   169   170    2
    40    39    40    2
    41    39    41   am
    42   134   135    1
    43   159   160   ar
    44   159   161   ar
    45   150   149    1
    46    59    57   ar
    47   136   135    2
    48    58    57   ar
    49   123   124    1
    50   123   125    1
    51   170   171    1
    52   170   172    1
    53    41    42    1
    54   135   139   am
    55    57    56    1
    56    44    43    2
    57   139   140    1
    58    42    43    1
    59    42    45    1
    60    43    52   am
    61    56    53    1
    62   147   146    2
    63    46    45    1
    64    46    47    1
    65   146   145    1
    66    77    76    1
    67    77    78    2
    68    52    53    1
    69   140   143    1
    70   140   141    1
    71    76    75    1
    72    76    79    1
    73    53    54    1
    74    65    68    1
    75    65    66    1
    76    65    64    1
    77    68    69    1
    78    50    49    1
    79    66    67    2
    80   145   144    1
    81   145   148    1
    82   141   142    2
    83    47    48    1
    84    79    80    1
    85    49    48    2
    86    49    51    1
    87    80    81    1
    88    54    55    2
    89    71    69   ar
    90    71    73   ar
    91    69    70   ar
    92    81    83   am
    93    81    82    2
    94    73    74   ar
    95    70    72   ar
    96    36    34   ar
    97    94    92    1
    98    91    92    2
    99    91    90    1
   100    92    93    1
   101    72    74   ar
   102    90    89    1
   103    31    30    2
   104    34    33    1
   105    34    35   ar
   106    89    88    1
   107    30    29    1
   108    33    32    1
   109    32    29    1
   110    26    25    1
   111    88    85    1
   112    29    28    1
   113    85    84    1
   114    85    86    1
   115    25    27    1
   116    25    24    2
   117    20    19    2
   118   118   117    1
   119    23    24    1
   120    23    22    1
   121    21    22    1
   122    21    18    1
   123    17    18    1
   124    95    86   am
   125    95    96    1
   126   115   117   ar
   127   115   113   ar
   128   117   116   ar
   129    86    87    2
   130    19    18    1
   131   116   114   ar
   132   113   112   ar
   133     9    12    1
   134     9    10    1
   135     9     8    1
   136    96    97    1
   137    12    13    1
   138   114   112   ar
   139   112   111    1
   140    10    11    2
   141   105   104    1
   142   104   106    1
   143   104   103    1
   144   111   108    1
   145    97    99   am
   146    97    98    2
   147    99   100    1
   148    13    14    1
   149    16    14   ar
   150    14    15   ar
   151     7     5    1
   152   103   100    1
   153   108   109    1
   154   108   107    1
   155   100   101    1
   156   102   101    2
   157   109   110    2
   158     6     5    1
   159     5     2    1
   160     1     2    1
   161     2     3    1
   162     3     4    2
