@<TRIPOS>MOLECULE
tmp/1httC00.pdb
 149 143 0 0 0
SMALL
GASTEIGER

@<TRIPOS>ATOM
      1  N         10.1370    6.7210  -13.6850 N.3    80  GLU80      -0.1231
      2  CA        11.1760    7.4050  -14.4280 C.3    80  GLU80       0.1699
      3  C         12.5310    6.8920  -13.9010 C.2    80  GLU80       0.2593
      4  O         12.5650    6.3630  -12.7860 O.2    80  GLU80      -0.2718
      5  CB        10.9640    8.9170  -14.2240 C.3    80  GLU80       0.0402
      6  CG        10.9400    9.4530  -12.7950 C.3    80  GLU80       0.1161
      7  CD        12.2770   10.0210  -12.4140 C.2    80  GLU80       0.3649
      8  OE1       13.1670    9.3280  -11.9310 O.co2  80  GLU80      -0.2457
      9  OE2       12.4120   11.2030  -12.6460 O.co2  80  GLU80      -0.2457
     10  N         13.6570    7.1000  -14.6250 N.am   81  GLY81      -0.1942
     11  CA        14.9610    6.4960  -14.3220 C.3    81  GLY81       0.2014
     12  C         16.0220    7.3690  -13.6710 C.2    81  GLY81       0.2639
     13  O         16.9980    6.8610  -13.1020 O.2    81  GLY81      -0.2714
     14  N         15.8570    8.6800  -13.6290 N.am   82  THR82      -0.1950
     15  CA        16.8570    9.5580  -13.0200 C.3    82  THR82       0.1897
     16  C         17.1220    9.2800  -11.5540 C.2    82  THR82       0.2313
     17  O         18.2770    9.1810  -11.1400 O.2    82  THR82      -0.2863
     18  CB        16.4300   11.0070  -13.1110 C.3    82  THR82       0.1794
     19  OG1       15.7880   11.2190  -14.3790 O.3    82  THR82      -0.2208
     20  CG2       17.6050   11.9120  -12.9210 C.3    82  THR82       0.0378
     21  N         20.8500    4.9510  -20.2480 N.3   104  TYR104     -0.1241
     22  CA        20.1180    3.7380  -19.8180 C.3   104  TYR104      0.1605
     23  C         18.9280    3.4950  -20.7040 C.2   104  TYR104      0.2264
     24  O         18.3820    4.4400  -21.2660 O.2   104  TYR104     -0.2867
     25  CB        19.5670    3.8160  -18.3590 C.3   104  TYR104      0.0534
     26  CG        18.7610    5.0390  -17.9190 C.ar  104  TYR104     -0.0201
     27  CD1       17.4270    5.1950  -18.3270 C.ar  104  TYR104     -0.0009
     28  CD2       19.3820    6.0470  -17.1480 C.ar  104  TYR104     -0.0009
     29  CE1       16.7350    6.3540  -17.9870 C.ar  104  TYR104      0.0417
     30  CE2       18.6930    7.2190  -16.7930 C.ar  104  TYR104      0.0417
     31  CZ        17.3690    7.3570  -17.2310 C.ar  104  TYR104      0.1957
     32  OH        16.6470    8.5100  -16.9690 O.3   104  TYR104     -0.2866
     33  N          3.6450    3.6430  -15.3330 N.3   110  ARG110     -0.1245
     34  CA         2.8420    4.7370  -14.7890 C.3   110  ARG110      0.1563
     35  C          1.3810    4.4220  -14.9610 C.2   110  ARG110      0.2260
     36  O          0.8980    4.0310  -16.0310 O.2   110  ARG110     -0.2867
     37  CB         3.1180    6.0670  -15.4770 C.3   110  ARG110      0.0307
     38  CG         4.3990    6.7160  -14.9440 C.3   110  ARG110      0.0489
     39  CD         4.7020    7.9730  -15.7250 C.3   110  ARG110      0.2205
     40  NE         6.0380    8.5210  -15.5010 N.pl3 110  ARG110     -0.0865
     41  CZ         6.3960    9.6950  -16.0540 C.cat 110  ARG110      0.5346
     42  NH1        5.5710   10.4210  -16.8110 N.pl3 110  ARG110      0.1354
     43  NH2        7.6150   10.1540  -15.8410 N.pl3 110  ARG110      0.1354
     44  N         11.9360    4.1010  -21.9500 N.3   124  GLN124     -0.1245
     45  CA        12.6940    5.3120  -22.1720 C.3   124  GLN124      0.1566
     46  C         14.1670    5.0340  -22.4580 C.2   124  GLN124      0.2260
     47  O         14.7170    4.0310  -21.9650 O.2   124  GLN124     -0.2867
     48  CB        12.6360    6.2450  -20.9350 C.3   124  GLN124      0.0367
     49  CG        11.3530    7.0160  -20.6750 C.3   124  GLN124      0.0905
     50  CD        11.4600    7.9670  -19.4920 C.2   124  GLN124      0.2608
     51  OE1       12.2130    7.7060  -18.5530 O.2   124  GLN124     -0.2717
     52  NE2       10.7840    9.1070  -19.4260 N.am  124  GLN124     -0.0878
     53  N         22.3410   10.8440  -18.4820 N.3   128  GLU128     -0.1245
     54  CA        22.6560   11.6100  -17.3090 C.3   128  GLU128      0.1567
     55  C         24.1550   11.8590  -17.3530 C.2   128  GLU128      0.2260
     56  O         24.9140   10.9190  -17.6510 O.2   128  GLU128     -0.2867
     57  CB        22.3140   10.8300  -16.0410 C.3   128  GLU128      0.0388
     58  CG        20.9270   10.1480  -15.8760 C.3   128  GLU128      0.1160
     59  CD        19.6800   11.0140  -15.9500 C.2   128  GLU128      0.3649
     60  OE1       19.7810   12.2420  -15.8530 O.co2 128  GLU128     -0.2457
     61  OE2       18.6010   10.4360  -16.1100 O.co2 128  GLU128     -0.2457
     62  N          8.8120   21.9070  -16.0010 N.3   205  ARG205     -0.1245
     63  CA         8.5570   20.5090  -16.2890 C.3   205  ARG205      0.1563
     64  C          7.6630   19.9330  -15.1970 C.2   205  ARG205      0.2260
     65  O          7.3840   20.6250  -14.2140 O.2   205  ARG205     -0.2867
     66  CB         9.9130   19.8230  -16.4010 C.3   205  ARG205      0.0307
     67  CG        10.7080   20.4260  -17.5760 C.3   205  ARG205      0.0489
     68  CD        11.5050   19.3820  -18.2770 C.3   205  ARG205      0.2205
     69  NE        10.5550   18.4120  -18.7320 N.pl3 205  ARG205     -0.0865
     70  CZ        10.6660   17.1530  -18.3690 C.cat 205  ARG205      0.5346
     71  NH1       11.6740   16.7070  -17.6620 N.pl3 205  ARG205      0.1354
     72  NH2        9.7540   16.3050  -18.7430 N.pl3 205  ARG205      0.1354
     73  N          8.2290   17.5590  -12.9140 N.3   207  LEU207     -0.1245
     74  CA         8.8690   16.8640  -11.7800 C.3   207  LEU207      0.1561
     75  C          9.5970   17.9130  -11.0040 C.2   207  LEU207      0.2260
     76  O         10.2150   18.7820  -11.6090 O.2   207  LEU207     -0.2867
     77  CB         9.9530   15.8760  -12.1560 C.3   207  LEU207      0.0270
     78  CG         9.7620   14.9580  -13.3130 C.3   207  LEU207      0.0019
     79  CD1       11.0630   14.2140  -13.4780 C.3   207  LEU207      0.0001
     80  CD2        8.5800   14.0350  -13.1110 C.3   207  LEU207      0.0001
     81  N         12.6700   18.3830   -9.4600 N.3   209  TYR209     -0.1227
     82  CA        14.0780   18.3730   -9.0650 C.3   209  TYR209      0.1736
     83  C         15.0050   19.1850   -9.9850 C.2   209  TYR209      0.2595
     84  O         16.2100   19.2930   -9.7440 O.2   209  TYR209     -0.2718
     85  CB        14.5790   16.9320   -8.9540 C.3   209  TYR209      0.0548
     86  CG        14.4480   15.9940  -10.1390 C.ar  209  TYR209     -0.0200
     87  CD1       14.8380   16.3610  -11.4280 C.ar  209  TYR209     -0.0009
     88  CD2       13.9370   14.7230   -9.8820 C.ar  209  TYR209     -0.0009
     89  CE1       14.7240   15.4460  -12.4530 C.ar  209  TYR209      0.0417
     90  CE2       13.8230   13.8000  -10.9060 C.ar  209  TYR209      0.0417
     91  CZ        14.2220   14.1850  -12.1800 C.ar  209  TYR209      0.1957
     92  OH        14.1250   13.2510  -13.1760 O.3   209  TYR209     -0.2866
     93  N         14.4160   19.7550  -11.0400 N.am  210  TYR210     -0.1976
     94  CA        15.1090   20.5490  -12.0350 C.3   210  TYR210      0.1639
     95  C         15.5080   21.9230  -11.5900 C.2   210  TYR210      0.2290
     96  O         14.7870   22.4840  -10.7670 O.2   210  TYR210     -0.2864
     97  CB        14.2770   20.7790  -13.2340 C.3   210  TYR210      0.0560
     98  CG        14.0600   19.4970  -13.9690 C.ar  210  TYR210     -0.0198
     99  CD1       15.1050   18.8410  -14.6170 C.ar  210  TYR210     -0.0009
    100  CD2       12.7730   18.9750  -13.9730 C.ar  210  TYR210     -0.0009
    101  CE1       14.8450   17.6330  -15.2800 C.ar  210  TYR210      0.0417
    102  CE2       12.5150   17.7850  -14.6330 C.ar  210  TYR210      0.0417
    103  CZ        13.5480   17.1210  -15.2690 C.ar  210  TYR210      0.1957
    104  OH        13.2310   15.9160  -15.8330 O.3   210  TYR210     -0.2866
    105  N         12.4800   14.8580  -23.3320 N.3   226  ALA226     -0.1231
    106  CA        12.3370   15.9640  -22.4040 C.3   226  ALA226      0.1694
    107  C         13.4140   15.8210  -21.3470 C.2   226  ALA226      0.2593
    108  O         13.8030   14.6800  -21.0590 O.2   226  ALA226     -0.2718
    109  CB        10.9670   15.8660  -21.7770 C.3   226  ALA226      0.0304
    110  N         13.9290   16.9180  -20.7990 N.am  227  GLY227     -0.1942
    111  CA        15.0040   16.8360  -19.8280 C.3   227  GLY227      0.2014
    112  C         15.2900   18.1970  -19.1990 C.2   227  GLY227      0.2639
    113  O         14.5710   19.1720  -19.4390 O.2   227  GLY227     -0.2714
    114  N         16.3540   18.3140  -18.4150 N.am  228  GLY228     -0.1954
    115  CA        16.7250   19.5670  -17.8160 C.3   228  GLY228      0.1869
    116  C         17.9230   19.4140  -16.9010 C.2   228  GLY228      0.2309
    117  O         18.6160   18.4160  -16.9620 O.2   228  GLY228     -0.2863
    118  N         19.6070   19.3000  -12.8500 N.3   230  TYR230     -0.1241
    119  CA        19.1140   18.9380  -11.5420 C.3   230  TYR230      0.1605
    120  C         20.2750   18.9520  -10.5700 C.2   230  TYR230      0.2264
    121  O         20.6180   17.9990   -9.8720 O.2   230  TYR230     -0.2867
    122  CB        18.4110   17.5420  -11.6440 C.3   230  TYR230      0.0534
    123  CG        19.1800   16.2740  -12.0820 C.ar  230  TYR230     -0.0201
    124  CD1       19.8830   15.4620  -11.1480 C.ar  230  TYR230     -0.0009
    125  CD2       19.1880   15.9090  -13.4390 C.ar  230  TYR230     -0.0009
    126  CE1       20.5770   14.3240  -11.5550 C.ar  230  TYR230      0.0417
    127  CE2       19.8860   14.7640  -13.8640 C.ar  230  TYR230      0.0417
    128  CZ        20.5640   13.9930  -12.9160 C.ar  230  TYR230      0.1957
    129  OH        21.2010   12.8610  -13.3460 O.3   230  TYR230     -0.2866
    130  N         20.4840   15.9400  -17.8150 N.3   246  GLY246     -0.1210
    131  CA        20.1740   14.7510  -18.5440 C.3   246  GLY246      0.1956
    132  C         18.8580   14.9550  -19.2510 C.2   246  GLY246      0.2612
    133  O         18.3130   16.0740  -19.2470 O.2   246  GLY246     -0.2717
    134  N         18.3470   13.8670  -19.8390 N.am  247  PHE247     -0.1962
    135  CA        17.0820   13.8430  -20.5580 C.3   247  PHE247      0.1771
    136  C         16.6190   12.3880  -20.6860 C.2   247  PHE247      0.2619
    137  O         17.4210   11.4660  -20.4590 O.2   247  PHE247     -0.2715
    138  CB        17.2260   14.4510  -21.9920 C.3   247  PHE247      0.0574
    139  CG        18.1250   13.6940  -22.9990 C.ar  247  PHE247     -0.0200
    140  CD1       17.6630   12.5440  -23.6660 C.ar  247  PHE247     -0.0042
    141  CD2       19.4290   14.1250  -23.2260 C.ar  247  PHE247     -0.0042
    142  CE1       18.4890   11.8290  -24.5340 C.ar  247  PHE247     -0.0003
    143  CE2       20.2420   13.4050  -24.0970 C.ar  247  PHE247     -0.0003
    144  CZ        19.7820   12.2630  -24.7470 C.ar  247  PHE247     -0.0000
    145  N         15.3610   12.1730  -21.1000 N.am  248  ALA248     -0.1977
    146  CA        14.8320   10.8520  -21.3750 C.3   248  ALA248      0.1597
    147  C         13.8590   10.9620  -22.5190 C.2   248  ALA248      0.2287
    148  O         13.2070   11.9890  -22.7220 O.2   248  ALA248     -0.2864
    149  CB        14.1220   10.3230  -20.1790 C.3   248  ALA248      0.0319
@<TRIPOS>BOND
     1   144   142   ar
     2   144   143   ar
     3   142   140   ar
     4   143   141   ar
     5   140   139   ar
     6   105   106    1
     7   141   139   ar
     8   139   138    1
     9   148   147    2
    10   147   146    1
    11    46    45    1
    12    46    47    2
    13   106   109    1
    14   106   107    1
    15    45    44    1
    16    45    48    1
    17   138   135    1
    18   146   145    1
    19   146   149    1
    20   107   108    2
    21   107   110   am
    22    24    23    2
    23   145   136   am
    24    48    49    1
    25   110   111    1
    26    23    22    1
    27   136   135    1
    28   136   137    2
    29    49    50    1
    30   135   134    1
    31    21    22    1
    32   134   132   am
    33   111   112    1
    34    22    25    1
    35    50    52   am
    36    50    51    2
    37   113   112    2
    38   132   133    2
    39   132   131    1
    40   112   114   am
    41    72    70    1
    42    69    70    2
    43    69    68    1
    44   131   130    1
    45    53    54    1
    46   114   115    1
    47    70    71    1
    48    25    26    1
    49    27    29   ar
    50    27    26   ar
    51    68    67    1
    52    29    31   ar
    53    26    28   ar
    54   115   116    1
    55    56    55    2
    56    67    66    1
    57    55    54    1
    58    54    57    1
    59    31    32    1
    60    31    30   ar
    61    28    30   ar
    62   117   116    2
    63    42    41    1
    64    66    63    1
    65    63    62    1
    66    63    64    1
    67    61    59   ar
    68    41    43    1
    69    41    40    2
    70    57    58    1
    71    36    35    2
    72    59    58    1
    73    59    60   ar
    74   104   103    1
    75    39    40    1
    76    39    38    1
    77    37    38    1
    78    37    34    1
    79    33    34    1
    80   101   103   ar
    81   101    99   ar
    82   103   102   ar
    83    64    65    2
    84    35    34    1
    85   102   100   ar
    86    10    11    1
    87    10     3   am
    88    99    98   ar
    89     2     5    1
    90     2     3    1
    91     2     1    1
    92    19    18    1
    93    11    12    1
    94     5     6    1
    95   100    98   ar
    96    98    97    1
    97     3     4    2
    98   127   125   ar
    99   127   128   ar
   100    12    14   am
   101    12    13    2
   102    14    15    1
   103    79    78    1
   104   125   123   ar
   105   129   128    1
   106    78    80    1
   107    78    77    1
   108    97    94    1
   109    92    91    1
   110    18    15    1
   111    18    20    1
   112    15    16    1
   113   128   126   ar
   114    73    74    1
   115   118   119    1
   116     6     7    1
   117     9     7   ar
   118    89    91   ar
   119    89    87   ar
   120     7     8   ar
   121    91    90   ar
   122    77    74    1
   123   123   122    1
   124   123   124   ar
   125    94    95    1
   126    94    93    1
   127    74    75    1
   128   122   119    1
   129    76    75    2
   130    95    96    2
   131   126   124   ar
   132    16    17    2
   133   119   120    1
   134    87    86   ar
   135    93    83   am
   136    90    88   ar
   137   120   121    2
   138    86    88   ar
   139    86    85    1
   140    83    84    2
   141    83    82    1
   142    81    82    1
   143    82    85    1
