@<TRIPOS>MOLECULE
tmp/1htwA00.pdb
 105 98 0 0 0
SMALL
GASTEIGER

@<TRIPOS>ATOM
      1  N         27.5580    8.4000   20.8990 N.3     8  ILE8       -0.1245
      2  CA        26.0570    8.4860   20.8490 C.3     8  ILE8        0.1561
      3  C         25.5170    7.0420   21.0490 C.2     8  ILE8        0.2260
      4  O         25.4560    6.2850   20.0930 O.2     8  ILE8       -0.2867
      5  CB        25.7180    8.9240   19.4210 C.3     8  ILE8        0.0252
      6  CG1       26.2870   10.3240   19.1260 C.3     8  ILE8        0.0019
      7  CG2       24.1740    8.9330   19.3150 C.3     8  ILE8        0.0019
      8  CD1       25.8070   11.4500   20.0550 C.3     8  ILE8        0.0001
      9  N         22.6820    5.6140   21.6700 N.3    10  ASP10      -0.1225
     10  CA        21.4110    5.1170   21.1690 C.3    10  ASP10       0.1805
     11  C         20.6750    6.2490   20.4490 C.2    10  ASP10       0.2597
     12  O         21.2360    7.3660   20.3620 O.2    10  ASP10      -0.2718
     13  CB        20.5620    4.7000   22.3980 C.3    10  ASP10       0.1424
     14  CG        20.6180    5.6970   23.5210 C.2    10  ASP10       0.3668
     15  OD1       20.3670    6.9170   23.3210 O.co2  10  ASP10      -0.2456
     16  OD2       20.9510    5.3080   24.6680 O.co2  10  ASP10      -0.2456
     17  N         19.5850    5.8790   19.8030 N.am   11  GLU11      -0.1979
     18  CA        18.8780    6.8870   19.0020 C.3    11  GLU11       0.1602
     19  C         18.4060    8.0780   19.7900 C.2    11  GLU11       0.2287
     20  O         18.5040    9.2010   19.1990 O.2    11  GLU11      -0.2864
     21  CB        17.7460    6.1800   18.2340 C.3    11  GLU11       0.0415
     22  CG        17.0650    7.1620   17.2710 C.3    11  GLU11       0.1163
     23  CD        16.1880    6.4730   16.2570 C.2    11  GLU11       0.3649
     24  OE1       16.4330    5.2830   15.9720 O.co2  11  GLU11      -0.2457
     25  OE2       15.2410    7.1310   15.7670 O.co2  11  GLU11      -0.2457
     26  N         21.0890   10.5090   19.8450 N.3    14  MET14      -0.1245
     27  CA        21.3760   11.1490   18.5760 C.3    14  MET14       0.1570
     28  C         20.4330   12.3990   18.4570 C.2    14  MET14       0.2261
     29  O         20.8680   13.4120   17.9490 O.2    14  MET14      -0.2867
     30  CB        21.0790   10.2720   17.3660 C.3    14  MET14       0.0387
     31  CG        21.4520   10.8510   16.0440 C.3    14  MET14       0.0595
     32  SD        23.3100   11.2740   15.7990 S.3    14  MET14      -0.1393
     33  CE        23.8390    9.8290   14.7170 C.3    14  MET14       0.0692
     34  N         25.3450    4.6990    4.2100 N.3    42  LEU42      -0.1231
     35  CA        23.8700    4.4990    4.2780 C.3    42  LEU42       0.1693
     36  C         23.4750    3.8460    5.5560 C.2    42  LEU42       0.2593
     37  O         24.0130    2.7900    5.9940 O.2    42  LEU42      -0.2718
     38  CB        23.4850    3.6980    3.0240 C.3    42  LEU42       0.0284
     39  CG        21.9960    3.5690    2.7270 C.3    42  LEU42       0.0019
     40  CD1       21.4250    4.9020    2.2490 C.3    42  LEU42       0.0001
     41  CD2       21.7810    2.4830    1.6760 C.3    42  LEU42       0.0001
     42  N         22.5580    4.4400    6.3100 N.am   43  GLY43      -0.1942
     43  CA        22.0730    3.9580    7.5890 C.3    43  GLY43       0.2014
     44  C         22.8190    4.4190    8.8300 C.2    43  GLY43       0.2639
     45  O         22.4470    4.0470    9.9370 O.2    43  GLY43      -0.2714
     46  N         23.8850    5.2220    8.6580 N.am   44  ALA44      -0.1963
     47  CA        24.6760    5.7340    9.7490 C.3    44  ALA44       0.1728
     48  C         23.8860    6.6510   10.6890 C.2    44  ALA44       0.2617
     49  O         24.1620    6.7500   11.8470 O.2    44  ALA44      -0.2715
     50  CB        25.9120    6.4630    9.2430 C.3    44  ALA44       0.0334
     51  N         22.8640    7.3580   10.0910 N.am   45  GLY45      -0.1940
     52  CA        22.0210    8.1920   10.9700 C.3    45  GLY45       0.2014
     53  C         22.0530    9.6770   10.4700 C.2    45  GLY45       0.2642
     54  O         21.7150   10.4910   11.3690 O.2    45  GLY45      -0.2714
     55  N         22.4070    9.9510    9.2680 N.am   46  LYS46      -0.1917
     56  CA        22.5160   11.3830    8.8070 C.3    46  LYS46       0.1944
     57  C         21.1280   12.0140    8.8540 C.2    46  LYS46       0.2659
     58  O         20.9170   13.0800    9.4630 O.2    46  LYS46      -0.2711
     59  CB        23.1120   11.5070    7.4190 C.2    46  LYS46      -0.0002
     60  CG        24.4900   10.9180    7.1640 C.2    46  LYS46      -0.0270
     61  CD        24.9560   10.9500    5.7290 C.3    46  LYS46       0.0462
     62  CE        24.1940   10.0420    4.7830 C.3    46  LYS46       0.1140
     63  NZ        24.3220    8.5660    5.1570 N.3    46  LYS46      -0.1310
     64  N         20.1400   11.3160    8.2880 N.am   47  THR47      -0.1934
     65  CA        18.7370   11.7840    8.3690 C.3    47  THR47       0.2028
     66  C         18.1630   11.7720    9.7060 C.2    47  THR47       0.2642
     67  O         17.3690   12.6910   10.1240 O.2    47  THR47      -0.2714
     68  CB        17.9420   11.0220    7.2760 C.3    47  THR47       0.1808
     69  OG1       18.4580   11.3100    6.0230 O.3    47  THR47      -0.2208
     70  CG2       16.4630   11.4480    7.3850 C.3    47  THR47       0.0379
     71  N         18.4850   10.8290   10.6440 N.am   48  THR48      -0.1950
     72  CA        18.0040   10.8570   12.0040 C.3    48  THR48       0.1897
     73  C         18.5990   12.0530   12.8220 C.2    48  THR48       0.2313
     74  O         17.8650   12.6430   13.5790 O.2    48  THR48      -0.2863
     75  CB        18.4060    9.5840   12.7760 C.3    48  THR48       0.1794
     76  OG1       17.6310    8.5350   12.0490 O.3    48  THR48      -0.2208
     77  CG2       17.9810    9.6020   14.1950 C.3    48  THR48       0.0378
     78  N         23.3900   15.9920    2.8400 N.3   113  GLU113     -0.1245
     79  CA        23.8010   14.5750    2.7150 C.3   113  GLU113      0.1567
     80  C         24.2970   14.3600    1.3160 C.2   113  GLU113      0.2260
     81  O         23.8740   15.0120    0.3510 O.2   113  GLU113     -0.2867
     82  CB        22.6240   13.6360    3.0250 C.3   113  GLU113      0.0388
     83  CG        22.1560   13.7060    4.4650 C.3   113  GLU113      0.1160
     84  CD        21.0270   12.8160    4.8470 C.2   113  GLU113      0.3649
     85  OE1       21.1130   11.5790    4.5570 O.co2 113  GLU113     -0.2457
     86  OE2       20.0900   13.2700    5.5240 O.co2 113  GLU113     -0.2457
     87  N         23.3960   -0.3670   17.3350 N.3   136  ASP136     -0.1239
     88  CA        22.5250    0.8040   17.4530 C.3   136  ASP136      0.1674
     89  C         23.2600    1.9710   18.1310 C.2   136  ASP136      0.2266
     90  O         22.6060    2.8960   18.6160 O.2   136  ASP136     -0.2867
     91  CB        21.2650    0.4560   18.2270 C.3   136  ASP136      0.1410
     92  CG        20.3000   -0.4040   17.4160 C.2   136  ASP136      0.3668
     93  OD1       20.4670   -0.5170   16.1890 O.co2 136  ASP136     -0.2456
     94  OD2       19.3820   -0.9750   18.0480 O.co2 136  ASP136     -0.2456
     95  N         26.5050    4.9220   17.8830 N.3   138  ARG138     -0.1241
     96  CA        27.2180    5.7090   16.9150 C.3   138  ARG138      0.1606
     97  C         28.3330    6.4940   17.6120 C.2   138  ARG138      0.2264
     98  O         28.3650    6.6390   18.8140 O.2   138  ARG138     -0.2867
     99  CB        26.2730    6.7530   16.1870 C.3   138  ARG138      0.0562
    100  CG        25.0620    6.1180   15.5230 C.2   138  ARG138      0.0159
    101  CD        25.3060    5.3280   14.2970 C.2   138  ARG138      0.1886
    102  NE        24.0870    4.8530   13.6060 N.pl3 138  ARG138     -0.0578
    103  CZ        23.5380    3.6680   13.8600 C.cat 138  ARG138      0.5393
    104  NH1       24.1020    2.8240   14.7320 N.pl3 138  ARG138      0.1358
    105  NH2       22.4930    3.2270   13.1500 N.pl3 138  ARG138      0.1358
@<TRIPOS>BOND
     1    81    80    2
     2    80    79    1
     3    41    39    1
     4    40    39    1
     5    79    78    1
     6    79    82    1
     7    39    38    1
     8    38    35    1
     9    82    83    1
    10    34    35    1
    11    35    36    1
    12    83    84    1
    13    85    84   ar
    14    62    63    1
    15    62    61    1
    16    84    86   ar
    17    36    37    2
    18    36    42   am
    19    61    60    1
    20    69    68    1
    21    42    43    1
    22    60    59    2
    23    68    70    1
    24    68    65    1
    25    59    56    1
    26    43    44    1
    27    64    65    1
    28    64    57   am
    29    65    66    1
    30    46    44   am
    31    46    47    1
    32    56    57    1
    33    56    55    1
    34    44    45    2
    35    57    58    2
    36    50    47    1
    37    55    53   am
    38    66    67    2
    39    66    71   am
    40    47    48    1
    41    51    48   am
    42    51    52    1
    43    53    52    1
    44    53    54    2
    45    71    72    1
    46    48    49    2
    47    72    75    1
    48    72    73    1
    49    76    75    1
    50    75    77    1
    51    73    74    2
    52   105   103    1
    53   102   103    2
    54   102   101    1
    55   103   104    1
    56   101   100    2
    57    33    32    1
    58   100    99    1
    59    25    23   ar
    60    32    31    1
    61    24    23   ar
    62    31    30    1
    63    99    96    1
    64    93    92   ar
    65    23    22    1
    66    96    97    1
    67    96    95    1
    68    22    21    1
    69    87    88    1
    70    30    27    1
    71    92    94   ar
    72    92    91    1
    73    88    89    1
    74    88    91    1
    75    97    98    2
    76    29    28    2
    77    89    90    2
    78    21    18    1
    79    28    27    1
    80    27    26    1
    81    18    19    1
    82    18    17    1
    83     6     5    1
    84     6     8    1
    85    20    19    2
    86     7     5    1
    87     5     2    1
    88    17    11   am
    89     4     3    2
    90    12    11    2
    91    11    10    1
    92     2     1    1
    93     2     3    1
    94    10     9    1
    95    10    13    1
    96    13    14    1
    97    15    14   ar
    98    14    16   ar
