@<TRIPOS>MOLECULE
tmp/1htyA00.pdb
 127 124 0 0 0
SMALL
GASTEIGER

@<TRIPOS>ATOM
      1  N         38.7390   65.5310   10.8970 N.3    60  ASP60      -0.1239
      2  CA        38.7970   66.0770    9.5500 C.3    60  ASP60       0.1674
      3  C         40.0350   66.9300    9.3380 C.2    60  ASP60       0.2266
      4  O         40.2550   67.8910   10.0670 O.2    60  ASP60      -0.2867
      5  CB        37.5650   66.9350    9.2810 C.3    60  ASP60       0.1410
      6  CG        36.3160   66.1150    9.1460 C.2    60  ASP60       0.3668
      7  OD1       36.3280   65.2040    8.3030 O.co2  60  ASP60      -0.2456
      8  OD2       35.3310   66.3730    9.8730 O.co2  60  ASP60      -0.2456
      9  N         38.0820   71.5260    7.5430 N.3    63  TRP63      -0.1241
     10  CA        36.6540   71.5870    7.2500 C.3    63  TRP63       0.1605
     11  C         36.1520   72.9660    7.6740 C.2    63  TRP63       0.2264
     12  O         36.0630   73.8640    6.8400 O.2    63  TRP63      -0.2867
     13  CB        35.8540   70.4780    7.9520 C.3    63  TRP63       0.0550
     14  CG        34.3860   70.6060    7.6370 C.ar   63  TRP63       0.0003
     15  CD1       33.8400   70.9610    6.4320 C.ar   63  TRP63       0.0946
     16  CD2       33.2860   70.4670    8.5460 C.ar   63  TRP63       0.0152
     17  NE1       32.4740   71.0640    6.5400 N.ar   63  TRP63      -0.2442
     18  CE2       32.1070   70.7650    7.8260 C.ar   63  TRP63       0.0810
     19  CE3       33.1810   70.1220    9.9020 C.ar   63  TRP63       0.0012
     20  CZ2       30.8370   70.7310    8.4140 C.ar   63  TRP63       0.0191
     21  CZ3       31.9150   70.0880   10.4880 C.ar   63  TRP63       0.0001
     22  CH2       30.7620   70.3920    9.7410 C.ar   63  TRP63       0.0015
     23  N         32.9390   58.6180    6.6090 N.3   168  ASP168     -0.1239
     24  CA        32.4080   59.9190    6.2130 C.3   168  ASP168      0.1674
     25  C         32.3160   60.3340    4.7370 C.2   168  ASP168      0.2266
     26  O         31.6340   61.3120    4.4310 O.2   168  ASP168     -0.2867
     27  CB        33.1440   61.0200    6.9840 C.3   168  ASP168      0.1410
     28  CG        32.2360   62.1860    7.3520 C.2   168  ASP168      0.3668
     29  OD1       32.7610   63.2760    7.6540 O.co2 168  ASP168     -0.2456
     30  OD2       30.9990   62.0180    7.3590 O.co2 168  ASP168     -0.2456
     31  N         30.9600   61.0330    1.2120 N.3   170  PHE170     -0.1241
     32  CA        29.5410   61.1570    0.8680 C.3   170  PHE170      0.1605
     33  C         29.1670   60.2490   -0.3000 C.2   170  PHE170      0.2264
     34  O         28.9460   60.6990   -1.4260 O.2   170  PHE170     -0.2867
     35  CB        29.2200   62.6220    0.5520 C.3   170  PHE170      0.0534
     36  CG        30.0390   63.6090    1.3520 C.ar  170  PHE170     -0.0203
     37  CD1       30.3060   63.3900    2.7020 C.ar  170  PHE170     -0.0042
     38  CD2       30.5580   64.7510    0.7480 C.ar  170  PHE170     -0.0042
     39  CE1       31.0820   64.2920    3.4360 C.ar  170  PHE170     -0.0003
     40  CE2       31.3330   65.6590    1.4740 C.ar  170  PHE170     -0.0003
     41  CZ        31.5950   65.4280    2.8180 C.ar  170  PHE170     -0.0000
     42  N         28.3020   56.0180    4.6800 N.3   191  ARG191     -0.1245
     43  CA        27.3580   56.8750    3.9830 C.3   191  ARG191      0.1563
     44  C         26.8160   56.3520    2.6680 C.2   191  ARG191      0.2260
     45  O         27.3780   56.5950    1.5970 O.2   191  ARG191     -0.2867
     46  CB        27.9520   58.2710    3.7810 C.3   191  ARG191      0.0307
     47  CG        28.0780   59.0870    5.0670 C.3   191  ARG191      0.0489
     48  CD        28.5380   60.5010    4.7420 C.3   191  ARG191      0.2205
     49  NE        28.8050   61.3340    5.9150 N.pl3 191  ARG191     -0.0865
     50  CZ        27.8900   62.0330    6.5820 C.cat 191  ARG191      0.5346
     51  NH1       26.6160   62.0060    6.2110 N.pl3 191  ARG191      0.1354
     52  NH2       28.2610   62.7890    7.6090 N.pl3 191  ARG191      0.1354
     53  N         27.4800   57.8940   12.0960 N.3   230  TYR230     -0.1241
     54  CA        28.5130   57.1280   12.7750 C.3   230  TYR230      0.1605
     55  C         28.6250   57.5890   14.2280 C.2   230  TYR230      0.2264
     56  O         29.4420   57.0620   14.9830 O.2   230  TYR230     -0.2867
     57  CB        29.8710   57.2850   12.0680 C.3   230  TYR230      0.0534
     58  CG        30.3040   58.7160   11.8430 C.ar  230  TYR230     -0.0201
     59  CD1       30.6940   59.5300   12.9080 C.ar  230  TYR230     -0.0009
     60  CD2       30.2880   59.2680   10.5630 C.ar  230  TYR230     -0.0009
     61  CE1       31.0520   60.8650   12.7030 C.ar  230  TYR230      0.0417
     62  CE2       30.6440   60.5980   10.3480 C.ar  230  TYR230      0.0417
     63  CZ        31.0200   61.3890   11.4210 C.ar  230  TYR230      0.1957
     64  OH        31.3310   62.7130   11.2130 O.3   230  TYR230     -0.2866
     65  N         32.8260   63.2440   15.9890 N.3   301  ASP301     -0.1239
     66  CA        33.7880   64.2410   15.5300 C.3   301  ASP301      0.1674
     67  C         34.6950   64.7650   16.6350 C.2   301  ASP301      0.2266
     68  O         34.2210   65.2570   17.6600 O.2   301  ASP301     -0.2867
     69  CB        33.0540   65.4140   14.8800 C.3   301  ASP301      0.1410
     70  CG        32.4630   65.0530   13.5370 C.2   301  ASP301      0.3668
     71  OD1       32.4920   63.8600   13.1780 O.co2 301  ASP301     -0.2456
     72  OD2       31.9690   65.9670   12.8390 O.co2 301  ASP301     -0.2456
     73  N         23.1430   64.3050   -2.0720 N.3   375  TRP375     -0.1241
     74  CA        24.4180   65.0100   -2.0310 C.3   375  TRP375      0.1605
     75  C         25.1410   65.0400   -3.3730 C.2   375  TRP375      0.2264
     76  O         26.2520   64.5280   -3.4960 O.2   375  TRP375     -0.2867
     77  CB        25.3220   64.3620   -0.9730 C.3   375  TRP375      0.0550
     78  CG        24.7880   64.4400    0.4400 C.ar  375  TRP375      0.0003
     79  CD1       23.4970   64.2210    0.8500 C.ar  375  TRP375      0.0946
     80  CD2       25.5460   64.6900    1.6300 C.ar  375  TRP375      0.0152
     81  NE1       23.4110   64.3170    2.2190 N.ar  375  TRP375     -0.2442
     82  CE2       24.6520   64.6040    2.7240 C.ar  375  TRP375      0.0810
     83  CE3       26.8970   64.9750    1.8800 C.ar  375  TRP375      0.0012
     84  CZ2       25.0650   64.7950    4.0500 C.ar  375  TRP375      0.0191
     85  CZ3       27.3090   65.1630    3.1990 C.ar  375  TRP375      0.0001
     86  CH2       26.3940   65.0710    4.2690 C.ar  375  TRP375      0.0015
     87  N         37.7940   64.3520    2.2150 N.3   428  HIS428     -0.1226
     88  CA        36.3990   64.5030    1.8220 C.3   428  HIS428      0.1752
     89  C         35.7750   65.8720    2.1020 C.2   428  HIS428      0.2596
     90  O         34.5650   66.0380    1.9700 O.2   428  HIS428     -0.2718
     91  CB        35.5340   63.3790    2.4130 C.3   428  HIS428      0.0759
     92  CG        35.6380   63.2470    3.8960 C.ar  428  HIS428      0.0818
     93  ND1       36.6170   62.4960    4.5100 N.ar  428  HIS428     -0.2268
     94  CD2       34.9020   63.7950    4.8890 C.ar  428  HIS428      0.1154
     95  CE1       36.4790   62.5900    5.8200 C.ar  428  HIS428      0.1986
     96  NE2       35.4480   63.3720    6.0750 N.ar  428  HIS428     -0.2212
     97  N         36.5990   66.8380    2.5080 N.am  429  ASP429     -0.1974
     98  CA        36.1390   68.2170    2.6810 C.3   429  ASP429      0.1709
     99  C         37.0840   69.1110    1.8810 C.2   429  ASP429      0.2293
    100  O         36.9890   70.3410    1.9210 O.2   429  ASP429     -0.2864
    101  CB        36.1340   68.6580    4.1440 C.3   429  ASP429      0.1436
    102  CG        35.0000   68.0440    4.9260 C.2   429  ASP429      0.3671
    103  OD1       33.8360   68.1940    4.4910 O.co2 429  ASP429     -0.2456
    104  OD2       35.2720   67.4170    5.9700 O.co2 429  ASP429     -0.2456
    105  N         26.8400   70.9190   -0.2150 N.3   679  TYR679     -0.1241
    106  CA        26.6490   69.4750   -0.3450 C.3   679  TYR679      0.1605
    107  C         25.4560   69.0870   -1.1990 C.2   679  TYR679      0.2264
    108  O         25.5660   68.2530   -2.0970 O.2   679  TYR679     -0.2867
    109  CB        26.4400   68.8080    1.0220 C.3   679  TYR679      0.0534
    110  CG        27.4370   69.1640    2.0960 C.ar  679  TYR679     -0.0201
    111  CD1       27.3110   70.3450    2.8270 C.ar  679  TYR679     -0.0009
    112  CD2       28.4900   68.3030    2.4080 C.ar  679  TYR679     -0.0009
    113  CE1       28.2040   70.6570    3.8460 C.ar  679  TYR679      0.0417
    114  CE2       29.3890   68.6080    3.4250 C.ar  679  TYR679      0.0417
    115  CZ        29.2390   69.7830    4.1420 C.ar  679  TYR679      0.1957
    116  OH        30.0990   70.0770    5.1730 O.3   679  TYR679     -0.2866
    117  N         24.2300   71.1330    7.0470 N.3   824  ARG824     -0.1245
    118  CA        25.0950   69.9830    7.2790 C.3   824  ARG824      0.1563
    119  C         26.3090   70.3650    8.1280 C.2   824  ARG824      0.2260
    120  O         27.2740   69.6050    8.2320 O.2   824  ARG824     -0.2867
    121  CB        25.5260   69.3510    5.9490 C.3   824  ARG824      0.0307
    122  CG        24.3730   68.6710    5.1880 C.3   824  ARG824      0.0489
    123  CD        23.7100   67.5860    6.0400 C.3   824  ARG824      0.2205
    124  NE        22.6450   66.8520    5.3500 N.pl3 824  ARG824     -0.0865
    125  CZ        21.4690   67.3680    5.0010 C.cat 824  ARG824      0.5346
    126  NH1       21.1890   68.6380    5.2630 N.pl3 824  ARG824      0.1354
    127  NH2       20.5560   66.6030    4.4090 N.pl3 824  ARG824      0.1354
@<TRIPOS>BOND
     1    76    75    2
     2    75    74    1
     3   108   107    2
     4    73    74    1
     5    74    77    1
     6    34    33    2
     7   107   106    1
     8    77    78    1
     9   106   105    1
    10   106   109    1
    11    33    32    1
    12    78    79   ar
    13    78    80   ar
    14    35    32    1
    15    35    36    1
    16    38    36   ar
    17    38    40   ar
    18    79    81   ar
    19    32    31    1
    20   109   110    1
    21    36    37   ar
    22    40    41   ar
    23    45    44    2
    24    80    83   ar
    25    80    82   ar
    26    88    89    1
    27    88    87    1
    28    88    91    1
    29    83    85   ar
    30    99   100    2
    31    99    98    1
    32    90    89    2
    33   110   112   ar
    34   110   111   ar
    35    89    97   am
    36    81    82   ar
    37   112   114   ar
    38    91    92    1
    39    97    98    1
    40    44    43    1
    41    98   101    1
    42    37    39   ar
    43    82    84   ar
    44    41    39   ar
    45   111   113   ar
    46    85    86   ar
    47   114   115   ar
    48    46    43    1
    49    46    47    1
    50   113   115   ar
    51    92    93   ar
    52    92    94   ar
    53    43    42    1
    54    84    86   ar
    55   115   116    1
    56   101   102    1
    57   127   125    1
    58    26    25    2
    59   103   102   ar
    60    93    95   ar
    61    25    24    1
    62    48    47    1
    63    48    49    1
    64    94    96   ar
    65   102   104   ar
    66   125   126    1
    67   125   124    2
    68   122   121    1
    69   122   123    1
    70   124   123    1
    71    95    96   ar
    72    49    50    2
    73   121   118    1
    74    51    50    1
    75    24    23    1
    76    24    27    1
    77    15    17   ar
    78    15    14   ar
    79    17    18   ar
    80    50    52    1
    81    12    11    2
    82    27    28    1
    83   117   118    1
    84    10     9    1
    85    10    11    1
    86    10    13    1
    87   118   119    1
    88    28    30   ar
    89    28    29   ar
    90    14    13    1
    91    14    16   ar
    92    18    20   ar
    93    18    16   ar
    94   119   120    2
    95     7     6   ar
    96    20    22   ar
    97    16    19   ar
    98     6     5    1
    99     6     8   ar
   100     5     2    1
   101     3     2    1
   102     3     4    2
   103     2     1    1
   104    22    21   ar
   105    19    21   ar
   106    62    60   ar
   107    62    63   ar
   108    60    58   ar
   109    64    63    1
   110    63    61   ar
   111    58    57    1
   112    58    59   ar
   113    57    54    1
   114    53    54    1
   115    61    59   ar
   116    54    55    1
   117    72    70   ar
   118    71    70   ar
   119    70    69    1
   120    55    56    2
   121    69    66    1
   122    66    65    1
   123    66    67    1
   124    67    68    2
