@<TRIPOS>MOLECULE
tmp/1hu0C00.pdb
 142 132 0 0 0
SMALL
GASTEIGER

@<TRIPOS>ATOM
      1  N         24.8730   15.3810   31.7730 N.3    33  SER33      -0.1202
      2  CA        24.8800   16.8030   31.4630 C.3    33  SER33       0.2020
      3  C         23.7940   17.6830   32.0470 C.2    33  SER33       0.2619
      4  O         23.6010   18.8150   31.5860 O.2    33  SER33      -0.2717
      5  CB        24.9040   16.9920   29.9450 C.3    33  SER33       0.2103
      6  OG        26.1820   16.6770   29.4150 O.3    33  SER33      -0.2182
      7  N         23.0840   17.1900   33.0520 N.am   34  GLY34      -0.1942
      8  CA        22.0520   18.0070   33.6540 C.3    34  GLY34       0.2014
      9  C         20.6930   17.9940   32.9750 C.2    34  GLY34       0.2638
     10  O         19.9320   18.9320   33.1410 O.2    34  GLY34      -0.2714
     11  N         20.3850   16.9760   32.1790 N.am   35  GLN35      -0.1977
     12  CA        19.0550   16.8960   31.5890 C.3    35  GLN35       0.1601
     13  C         18.3240   16.0230   32.6050 C.2    35  GLN35       0.2287
     14  O         17.3140   16.4260   33.1770 O.2    35  GLN35      -0.2864
     15  CB        19.0730   16.2140   30.2250 C.3    35  GLN35       0.0394
     16  CG        19.7120   17.0320   29.0960 C.3    35  GLN35       0.0908
     17  CD        19.5370   16.3700   27.7440 C.2    35  GLN35       0.2608
     18  OE1       20.3950   16.4740   26.8660 O.2    35  GLN35      -0.2717
     19  NE2       18.4130   15.6870   27.5650 N.am   35  GLN35      -0.0878
     20  N         19.0410   13.5600   36.1230 N.3    37  PHE37      -0.1241
     21  CA        20.0480   13.3740   37.1500 C.3    37  PHE37       0.1605
     22  C         20.1030   11.9630   37.6970 C.2    37  PHE37       0.2264
     23  O         20.7030   11.7360   38.7360 O.2    37  PHE37      -0.2867
     24  CB        19.8080   14.3500   38.3010 C.3    37  PHE37       0.0534
     25  CG        19.8650   15.7870   37.8930 C.ar   37  PHE37      -0.0203
     26  CD1       18.7600   16.4060   37.3160 C.ar   37  PHE37      -0.0042
     27  CD2       21.0300   16.5210   38.0620 C.ar   37  PHE37      -0.0042
     28  CE1       18.8140   17.7320   36.9130 C.ar   37  PHE37      -0.0003
     29  CE2       21.0920   17.8550   37.6600 C.ar   37  PHE37      -0.0003
     30  CZ        19.9750   18.4580   37.0830 C.ar   37  PHE37      -0.0000
     31  N         14.1870   19.5440   38.6490 N.3   133  PHE133     -0.1241
     32  CA        14.6440   20.8860   38.3780 C.3   133  PHE133      0.1605
     33  C         14.2820   21.8880   39.4470 C.2   133  PHE133      0.2264
     34  O         14.8830   22.9610   39.5240 O.2   133  PHE133     -0.2867
     35  CB        14.1940   21.3220   36.9960 C.3   133  PHE133      0.0534
     36  CG        14.9520   20.6320   35.9000 C.ar  133  PHE133     -0.0203
     37  CD1       14.3780   19.5870   35.1810 C.ar  133  PHE133     -0.0042
     38  CD2       16.2730   20.9820   35.6370 C.ar  133  PHE133     -0.0042
     39  CE1       15.1040   18.8950   34.2200 C.ar  133  PHE133     -0.0003
     40  CE2       17.0190   20.2980   34.6730 C.ar  133  PHE133     -0.0003
     41  CZ        16.4330   19.2500   33.9630 C.ar  133  PHE133     -0.0000
     42  N         17.2030   21.8850   41.0860 N.3   136  SER136     -0.1217
     43  CA        18.3210   22.4470   40.3280 C.3   136  SER136      0.1889
     44  C         18.7010   23.9160   40.5040 C.2   136  SER136      0.2288
     45  O         19.8480   24.2800   40.2640 O.2   136  SER136     -0.2866
     46  CB        18.1060   22.1940   38.8310 C.3   136  SER136      0.2089
     47  OG        17.2340   23.1550   38.2420 O.3   136  SER136     -0.2183
     48  N         25.2370   20.6190   39.3450 N.3   141  ILE141     -0.1245
     49  CA        24.8540   19.2640   38.9590 C.3   141  ILE141      0.1561
     50  C         25.2510   18.1640   39.9390 C.2   141  ILE141      0.2260
     51  O         24.4980   17.2110   40.1390 O.2   141  ILE141     -0.2867
     52  CB        25.4180   18.9030   37.5590 C.3   141  ILE141      0.0252
     53  CG1       24.8050   19.8220   36.4930 C.3   141  ILE141      0.0019
     54  CG2       25.1090   17.4510   37.2380 C.3   141  ILE141      0.0019
     55  CD1       25.3410   19.6060   35.0750 C.3   141  ILE141      0.0001
     56  N         22.7920   18.5260   43.0020 N.3   144  ILE144     -0.1245
     57  CA        21.4660   18.1890   42.5090 C.3   144  ILE144      0.1561
     58  C         21.3070   16.6880   42.3610 C.2   144  ILE144      0.2260
     59  O         20.3010   16.1250   42.7750 O.2   144  ILE144     -0.2867
     60  CB        21.1890   18.8400   41.1460 C.3   144  ILE144      0.0252
     61  CG1       21.4010   20.3490   41.2390 C.3   144  ILE144      0.0019
     62  CG2       19.7630   18.5530   40.7260 C.3   144  ILE144      0.0019
     63  CD1       21.3940   21.0470   39.9010 C.3   144  ILE144      0.0001
     64  N         13.5360   29.8480   34.4500 N.3   238  LYS238     -0.1245
     65  CA        14.4250   28.7860   33.9880 C.3   238  LYS238      0.1561
     66  C         13.8540   27.3810   34.2080 C.2   238  LYS238      0.2260
     67  O         13.7820   26.5700   33.2720 O.2   238  LYS238     -0.2867
     68  CB        15.7880   28.8810   34.6740 C.3   238  LYS238      0.0271
     69  CG        16.8140   27.9210   34.0710 C.3   238  LYS238      0.0035
     70  CD        17.6680   27.2550   35.1290 C.3   238  LYS238      0.0206
     71  CE        18.4520   26.1050   34.5280 C.3   238  LYS238      0.1093
     72  NZ        19.1920   25.3050   35.5410 N.3   238  LYS238     -0.1314
     73  N         13.0450   24.5530   31.4970 N.3   242  CYS242     -0.1235
     74  CA        13.6470   23.2190   31.5500 C.3   242  CYS242      0.1677
     75  C         12.5510   22.1670   31.4070 C.2   242  CYS242      0.2270
     76  O         12.6730   21.2210   30.6260 O.2   242  CYS242     -0.2867
     77  CB        14.3850   23.0040   32.8800 C.3   242  CYS242      0.0956
     78  SG        16.0210   23.7550   32.9800 S.3   242  CYS242     -0.0801
     79  N         10.9680   22.1240   27.8280 N.3   245  LEU245     -0.1231
     80  CA        11.9020   21.5280   26.8690 C.3   245  LEU245      0.1693
     81  C         12.1020   20.0370   27.0430 C.2   245  LEU245      0.2591
     82  O         11.9900   19.2660   26.0890 O.2   245  LEU245     -0.2718
     83  CB        13.2790   22.2050   26.9600 C.3   245  LEU245      0.0284
     84  CG        14.4420   21.6060   26.1540 C.3   245  LEU245      0.0019
     85  CD1       14.1370   21.6270   24.6460 C.3   245  LEU245      0.0001
     86  CD2       15.7060   22.4210   26.4410 C.3   245  LEU245      0.0001
     87  N         12.3740   19.6340   28.2780 N.am  246  MET246     -0.1979
     88  CA        12.6650   18.2440   28.5550 C.3   246  MET246      0.1605
     89  C         11.5060   17.3200   28.9320 C.2   246  MET246      0.2287
     90  O         11.6640   16.1090   28.9180 O.2   246  MET246     -0.2864
     91  CB        13.7890   18.2040   29.5970 C.3   246  MET246      0.0413
     92  CG        15.0580   18.9280   29.1070 C.3   246  MET246      0.0598
     93  SD        16.3480   19.1250   30.3490 S.3   246  MET246     -0.1393
     94  CE        16.0420   20.7640   30.9710 C.3   246  MET246      0.0692
     95  N         16.1950   27.2540   28.2510 N.3   255  PRO255     -0.2116
     96  CA        16.4680   27.6350   29.6420 C.3   255  PRO255      0.1372
     97  C         17.6610   28.5890   29.7570 C.2   255  PRO255      0.2244
     98  O         18.7860   28.2320   29.4250 O.2   255  PRO255     -0.2868
     99  CB        16.7290   26.2890   30.3290 C.3   255  PRO255      0.0268
    100  CG        16.0810   25.2760   29.4140 C.3   255  PRO255      0.0207
    101  CD        16.3900   25.8100   28.0490 C.3   255  PRO255      0.0892
    102  N         20.2740   30.2610   31.9040 N.3   257  ASP257     -0.1239
    103  CA        20.9790   30.1930   33.1740 C.3   257  ASP257      0.1674
    104  C         22.3050   30.9350   33.0580 C.2   257  ASP257      0.2266
    105  O         22.5500   31.6470   32.0870 O.2   257  ASP257     -0.2867
    106  CB        21.2480   28.7380   33.5350 C.3   257  ASP257      0.1410
    107  CG        22.3180   28.1180   32.6650 C.2   257  ASP257      0.3668
    108  OD1       22.3300   28.3840   31.4360 O.co2 257  ASP257     -0.2456
    109  OD2       23.1440   27.3570   33.2130 O.co2 257  ASP257     -0.2456
    110  N         24.2020   29.8800   29.7320 N.3   260  MET260     -0.1245
    111  CA        23.7650   30.5140   28.4950 C.3   260  MET260      0.1570
    112  C         24.1130   31.9980   28.3990 C.2   260  MET260      0.2261
    113  O         24.2570   32.5240   27.2970 O.2   260  MET260     -0.2867
    114  CB        22.2630   30.3090   28.2950 C.3   260  MET260      0.0387
    115  CG        21.8590   28.8420   28.0740 C.3   260  MET260      0.0595
    116  SD        22.7280   28.0120   26.6980 S.3   260  MET260     -0.1393
    117  CE        23.8790   27.0420   27.6060 C.3   260  MET260      0.0692
    118  N         20.6180   24.4400   22.1110 N.3   304  GLN304     -0.1231
    119  CA        21.0880   24.9250   23.3950 C.3   304  GLN304      0.1698
    120  C         21.8160   23.8200   24.1690 C.2   304  GLN304      0.2592
    121  O         22.9230   24.0310   24.6840 O.2   304  GLN304     -0.2718
    122  CB        19.8850   25.4370   24.1970 C.3   304  GLN304      0.0381
    123  CG        20.1520   25.6650   25.6650 C.3   304  GLN304      0.0905
    124  CD        19.8730   24.4320   26.5270 C.2   304  GLN304      0.2608
    125  OE1       20.3310   24.3600   27.6600 O.2   304  GLN304     -0.2717
    126  NE2       19.1100   23.4720   25.9960 N.am  304  GLN304     -0.0878
    127  N         21.1980   22.6400   24.2400 N.am  305  ALA305     -0.1980
    128  CA        21.7910   21.5110   24.9560 C.3   305  ALA305      0.1597
    129  C         23.1830   21.1620   24.4070 C.2   305  ALA305      0.2287
    130  O         24.0450   20.6870   25.1420 O.2   305  ALA305     -0.2864
    131  CB        20.8640   20.2920   24.8680 C.3   305  ALA305      0.0319
    132  N         25.5220   24.0430   25.7020 N.3   308  PHE308     -0.1241
    133  CA        25.5010   23.9330   27.1690 C.3   308  PHE308      0.1605
    134  C         26.3720   22.7470   27.5610 C.2   308  PHE308      0.2264
    135  O         27.2680   22.8660   28.3920 O.2   308  PHE308     -0.2867
    136  CB        24.0660   23.6940   27.6860 C.3   308  PHE308      0.0534
    137  CG        23.9610   23.5680   29.1930 C.ar  308  PHE308     -0.0203
    138  CD1       23.7810   24.6940   29.9940 C.ar  308  PHE308     -0.0042
    139  CD2       24.0660   22.3190   29.8150 C.ar  308  PHE308     -0.0042
    140  CE1       23.7070   24.5780   31.3940 C.ar  308  PHE308     -0.0003
    141  CE2       23.9940   22.1910   31.2170 C.ar  308  PHE308     -0.0003
    142  CZ        23.8140   23.3210   32.0050 C.ar  308  PHE308     -0.0000
@<TRIPOS>BOND
     1   118   119    1
     2   119   120    1
     3   119   122    1
     4   120   127   am
     5   120   121    2
     6   122   123    1
     7   127   128    1
     8   129   128    1
     9   129   130    2
    10    85    84    1
    11   131   128    1
    12   123   124    1
    13   132   133    1
    14   126   124   am
    15    82    81    2
    16    84    86    1
    17    84    83    1
    18   124   125    2
    19   116   117    1
    20   116   115    1
    21    18    17    2
    22    80    83    1
    23    80    81    1
    24    80    79    1
    25    81    87   am
    26   133   134    1
    27   133   136    1
    28   113   112    2
    29   134   135    2
    30    19    17   am
    31   136   137    1
    32    17    16    1
    33   101    95    1
    34   101   100    1
    35   115   114    1
    36    95    96    1
    37    87    88    1
    38   114   111    1
    39   112   111    1
    40   111   110    1
    41    88    89    1
    42    88    91    1
    43    90    89    2
    44    16    15    1
    45    92    91    1
    46    92    93    1
    47   137   139   ar
    48   137   138   ar
    49   100    99    1
    50     6     5    1
    51    98    97    2
    52    96    97    1
    53    96    99    1
    54   139   141   ar
    55     5     2    1
    56   138   140   ar
    57    15    12    1
    58    93    94    1
    59    76    75    2
    60   141   142   ar
    61   140   142   ar
    62    75    74    1
    63   108   107   ar
    64     2     1    1
    65     2     3    1
    66    73    74    1
    67    74    77    1
    68     4     3    2
    69    12    11    1
    70    12    13    1
    71   102   103    1
    72     3     7   am
    73   105   104    2
    74    11     9   am
    75    13    14    2
    76   107   109   ar
    77   107   106    1
    78    77    78    1
    79     9    10    2
    80     9     8    1
    81     7     8    1
    82   104   103    1
    83   103   106    1
    84    67    66    2
    85    41    39   ar
    86    41    40   ar
    87    65    66    1
    88    65    64    1
    89    65    68    1
    90    69    68    1
    91    69    70    1
    92    39    37   ar
    93    71    70    1
    94    71    72    1
    95    40    38   ar
    96    55    53    1
    97    37    36   ar
    98    38    36   ar
    99    36    35    1
   100    20    21    1
   101    53    52    1
   102    28    30   ar
   103    28    26   ar
   104    35    32    1
   105    30    29   ar
   106    21    22    1
   107    21    24    1
   108    54    52    1
   109    26    25   ar
   110    52    49    1
   111    29    27   ar
   112    22    23    2
   113    25    27   ar
   114    25    24    1
   115    47    46    1
   116    32    31    1
   117    32    33    1
   118    46    43    1
   119    49    48    1
   120    49    50    1
   121    33    34    2
   122    63    61    1
   123    50    51    2
   124    45    44    2
   125    43    44    1
   126    43    42    1
   127    62    60    1
   128    60    61    1
   129    60    57    1
   130    58    57    1
   131    58    59    2
   132    57    56    1
