@<TRIPOS>MOLECULE
tmp/1hu9A00.pdb
 118 111 0 0 0
SMALL
GASTEIGER

@<TRIPOS>ATOM
      1  N         23.0070   -1.1270   24.5020 N.3   506  GLN506     -0.1231
      2  CA        22.3980    0.0160   23.8480 C.3   506  GLN506      0.1698
      3  C         23.0620    1.3400   24.2230 C.2   506  GLN506      0.2592
      4  O         23.4690    2.1050   23.3440 O.2   506  GLN506     -0.2718
      5  CB        20.8920    0.0650   24.1390 C.3   506  GLN506      0.0381
      6  CG        20.1110    0.9950   23.2100 C.3   506  GLN506      0.0905
      7  CD        20.3770    0.6930   21.7420 C.2   506  GLN506      0.2608
      8  OE1       21.1470    1.3960   21.0810 O.2   506  GLN506     -0.2717
      9  NE2       19.7750   -0.3700   21.2370 N.am  506  GLN506     -0.0878
     10  N         23.2110    1.5830   25.5230 N.am  507  LEU507     -0.1980
     11  CA        23.8050    2.8260   26.0070 C.3   507  LEU507      0.1596
     12  C         25.3280    2.9140   25.9750 C.2   507  LEU507      0.2287
     13  O         25.8800    3.9700   25.6930 O.2   507  LEU507     -0.2864
     14  CB        23.2960    3.1500   27.4280 C.3   507  LEU507      0.0297
     15  CG        21.9340    3.8420   27.5670 C.3   507  LEU507      0.0022
     16  CD1       21.9390    5.1510   26.7730 C.3   507  LEU507      0.0001
     17  CD2       20.8170    2.9420   27.0750 C.3   507  LEU507      0.0001
     18  N         27.2240    0.4510   22.2600 N.3   510  HIS510     -0.1226
     19  CA        26.7680    1.1290   21.0580 C.3   510  HIS510      0.1752
     20  C         26.7630    2.6640   21.0950 C.2   510  HIS510      0.2596
     21  O         27.6010    3.2860   20.4550 O.2   510  HIS510     -0.2718
     22  CB        25.3980    0.5730   20.6610 C.3   510  HIS510      0.0759
     23  CG        24.7770    1.2630   19.4870 C.ar  510  HIS510      0.0818
     24  ND1       23.4550    1.6350   19.4370 N.ar  510  HIS510     -0.2268
     25  CD2       25.3230    1.6820   18.3170 C.ar  510  HIS510      0.1154
     26  CE1       23.2480    2.2580   18.2780 C.ar  510  HIS510      0.1986
     27  NE2       24.3460    2.3180   17.5550 N.ar  510  HIS510     -0.2212
     28  N         25.8420    3.2850   21.8270 N.am  511  TRP511     -0.1976
     29  CA        25.7960    4.7470   21.8600 C.3   511  TRP511      0.1640
     30  C         27.0790    5.4030   22.3140 C.2   511  TRP511      0.2290
     31  O         27.6290    6.2320   21.6030 O.2   511  TRP511     -0.2864
     32  CB        24.6290    5.2690   22.7150 C.3   511  TRP511      0.0576
     33  CG        24.7160    6.7680   23.0320 C.ar  511  TRP511      0.0006
     34  CD1       25.0540    7.3300   24.2300 C.ar  511  TRP511      0.0946
     35  CD2       24.4880    7.8720   22.1280 C.ar  511  TRP511      0.0152
     36  NE1       25.0590    8.7020   24.1340 N.ar  511  TRP511     -0.2442
     37  CE2       24.7120    9.0650   22.8590 C.ar  511  TRP511      0.0810
     38  CE3       24.1140    7.9670   20.7780 C.ar  511  TRP511      0.0012
     39  CZ2       24.5750   10.3390   22.2840 C.ar  511  TRP511      0.0191
     40  CZ3       23.9770    9.2370   20.2080 C.ar  511  TRP511      0.0001
     41  CH2       24.2110   10.4040   20.9630 C.ar  511  TRP511      0.0015
     42  N         28.9550    6.1500   18.7510 N.3   515  HIS515     -0.1241
     43  CA        28.3230    7.4280   18.4040 C.3   515  HIS515      0.1621
     44  C         28.8730    8.6240   19.1770 C.2   515  HIS515      0.2264
     45  O         29.3600    9.5730   18.5670 O.2   515  HIS515     -0.2867
     46  CB        26.8120    7.3570   18.6450 C.3   515  HIS515      0.0745
     47  CG        26.0490    6.6110   17.6010 C.ar  515  HIS515      0.0817
     48  ND1       25.4680    7.2040   16.5040 N.ar  515  HIS515     -0.2268
     49  CD2       25.7470    5.2920   17.5110 C.ar  515  HIS515      0.1154
     50  CE1       24.8390    6.2510   15.8030 C.ar  515  HIS515      0.1986
     51  NE2       24.9770    5.0680   16.3690 N.ar  515  HIS515     -0.2212
     52  N         23.1800   11.5920   12.4010 N.3   549  ILE549     -0.1245
     53  CA        22.4610   10.5120   13.0430 C.3   549  ILE549      0.1561
     54  C         22.4410   10.7830   14.5570 C.2   549  ILE549      0.2260
     55  O         21.4530   10.4800   15.2350 O.2   549  ILE549     -0.2867
     56  CB        23.0700    9.1270   12.6460 C.3   549  ILE549      0.0252
     57  CG1       22.0280    8.0170   12.7580 C.3   549  ILE549      0.0019
     58  CG2       24.3150    8.8190   13.4320 C.3   549  ILE549      0.0019
     59  CD1       21.6460    7.6170   14.1500 C.3   549  ILE549      0.0001
     60  N         19.4320   11.4890   17.4810 N.3   553  ALA553     -0.1245
     61  CA        19.4200   10.7990   18.7720 C.3   553  ALA553      0.1562
     62  C         19.1750   11.7670   19.9200 C.2   553  ALA553      0.2260
     63  O         18.4480   11.4470   20.8450 O.2   553  ALA553     -0.2867
     64  CB        20.7180   10.0500   18.9900 C.3   553  ALA553      0.0290
     65  N         15.9660   10.0660   20.4770 N.3   557  LEU557     -0.1231
     66  CA        16.3970    8.7310   20.8850 C.3   557  LEU557      0.1693
     67  C         16.8370    8.6660   22.3340 C.2   557  LEU557      0.2591
     68  O         16.3250    7.8940   23.1260 O.2   557  LEU557     -0.2718
     69  CB        17.5490    8.2630   19.9970 C.3   557  LEU557      0.0284
     70  CG        17.2220    7.2930   18.8500 C.3   557  LEU557      0.0019
     71  CD1       15.9680    7.6940   18.1240 C.3   557  LEU557      0.0001
     72  CD2       18.3890    7.2190   17.8990 C.3   557  LEU557      0.0001
     73  N         17.7750    9.5290   22.6760 N.am  558  VAL558     -0.1980
     74  CA        18.3500    9.5700   24.0000 C.3   558  VAL558      0.1595
     75  C         17.8680   10.8090   24.8070 C.2   558  VAL558      0.2287
     76  O         18.4850   11.2100   25.7970 O.2   558  VAL558     -0.2864
     77  CB        19.8970    9.5100   23.8280 C.3   558  VAL558      0.0276
     78  CG1       20.4830   10.8960   23.4860 C.3   558  VAL558      0.0022
     79  CG2       20.5430    8.8630   25.0030 C.3   558  VAL558      0.0022
     80  N         14.5400    5.4100   24.1460 N.3   564  ILE564     -0.1245
     81  CA        15.4960    4.7140   24.9990 C.3   564  ILE564      0.1561
     82  C         15.0640    4.6650   26.4540 C.2   564  ILE564      0.2260
     83  O         15.1410    3.6130   27.0980 O.2   564  ILE564     -0.2867
     84  CB        16.9060    5.3260   24.8680 C.3   564  ILE564      0.0252
     85  CG1       17.4520    5.0350   23.4660 C.3   564  ILE564      0.0019
     86  CG2       17.8350    4.8100   25.9710 C.3   564  ILE564      0.0019
     87  CD1       17.0460    3.6750   22.9190 C.3   564  ILE564      0.0001
     88  N         25.8930   -2.7290   15.9740 N.3   705  ASN705     -0.1240
     89  CA        24.5840   -2.2630   15.4980 C.3   705  ASN705      0.1653
     90  C         23.7920   -3.2170   14.5790 C.2   705  ASN705      0.2266
     91  O         22.5800   -3.3390   14.7320 O.2   705  ASN705     -0.2867
     92  CB        24.7330   -0.8610   14.8270 C.3   705  ASN705      0.1155
     93  CG        23.4150   -0.0250   14.8250 C.2   705  ASN705      0.2627
     94  OD1       23.3980    1.2370   14.7030 O.2   705  ASN705     -0.2716
     95  ND2       22.3060   -0.7340   14.8710 N.am  705  ASN705     -0.0877
     96  N         12.0150    0.4800   15.9700 N.3   761  VAL761     -0.1245
     97  CA        13.2740    1.2210   16.0030 C.3   761  VAL761      0.1561
     98  C         14.5170    0.3960   15.6390 C.2   761  VAL761      0.2260
     99  O         15.3120    0.8220   14.8100 O.2   761  VAL761     -0.2867
    100  CB        13.4720    1.9280   17.3630 C.3   761  VAL761      0.0252
    101  CG1       14.8960    2.4710   17.4930 C.3   761  VAL761      0.0019
    102  CG2       12.4720    3.0580   17.4970 C.3   761  VAL761      0.0019
    103  N         17.4330    0.7030   12.4760 N.3   765  LEU765     -0.1245
    104  CA        18.8500    0.7300   12.8840 C.3   765  LEU765      0.1561
    105  C         19.7040   -0.3940   12.2790 C.2   765  LEU765      0.2260
    106  O         20.8770   -0.1910   11.9500 O.2   765  LEU765     -0.2867
    107  CB        18.9420    0.6390   14.4160 C.3   765  LEU765      0.0270
    108  CG        19.0020    1.8990   15.2860 C.3   765  LEU765      0.0019
    109  CD1       18.2040    3.0470   14.7250 C.3   765  LEU765      0.0001
    110  CD2       18.5390    1.5330   16.6870 C.3   765  LEU765      0.0001
    111  N         24.0650    5.0520   11.1390 N.3   849  ILE849     -0.1245
    112  CA        22.7350    4.6590   11.6060 C.3   849  ILE849      0.1561
    113  C         22.7640    4.1250   13.0540 C.2   849  ILE849      0.2260
    114  O         21.6760    3.8100   13.5880 O.2   849  ILE849     -0.2867
    115  CB        22.1270    3.6010   10.6340 C.3   849  ILE849      0.0252
    116  CG1       20.6270    3.4060   10.8870 C.3   849  ILE849      0.0019
    117  CG2       22.8820    2.2850   10.7440 C.3   849  ILE849      0.0019
    118  CD1       19.8120    4.6530   10.6630 C.3   849  ILE849      0.0001
@<TRIPOS>BOND
     1   115   117    1
     2   115   116    1
     3   115   112    1
     4   118   116    1
     5   111   112    1
     6   112   113    1
     7   106   105    2
     8   105   104    1
     9    52    53    1
    10   103   104    1
    11    56    57    1
    12    56    53    1
    13    56    58    1
    14    57    59    1
    15   104   107    1
    16    53    54    1
    17   113   114    2
    18   107   108    1
    19    54    55    2
    20    90    91    2
    21    90    89    1
    22    94    93    2
    23   109   108    1
    24    99    98    2
    25    93    92    1
    26    93    95   am
    27    92    89    1
    28   108   110    1
    29    89    88    1
    30    98    97    1
    31    50    51   ar
    32    50    48   ar
    33    96    97    1
    34    97   100    1
    35    51    49   ar
    36    48    47   ar
    37   100   101    1
    38   100   102    1
    39    60    61    1
    40    49    47   ar
    41    27    26   ar
    42    27    25   ar
    43    47    46    1
    44    72    70    1
    45    71    70    1
    46    26    24   ar
    47    25    23   ar
    48    43    46    1
    49    43    42    1
    50    43    44    1
    51    45    44    2
    52    61    64    1
    53    61    62    1
    54    70    69    1
    55    24    23   ar
    56    23    22    1
    57    62    63    2
    58    69    66    1
    59    40    38   ar
    60    40    41   ar
    61    21    20    2
    62    65    66    1
    63    22    19    1
    64    38    35   ar
    65    66    67    1
    66    41    39   ar
    67    19    20    1
    68    19    18    1
    69     8     7    2
    70    20    28   am
    71     9     7   am
    72    31    30    2
    73     7     6    1
    74    28    29    1
    75    29    30    1
    76    29    32    1
    77    35    37   ar
    78    35    33   ar
    79    39    37   ar
    80    67    73   am
    81    67    68    2
    82    73    74    1
    83    32    33    1
    84    37    36   ar
    85    87    85    1
    86    33    34   ar
    87     6     5    1
    88     4     3    2
    89    85    84    1
    90    78    77    1
    91    77    74    1
    92    77    79    1
    93     2     5    1
    94     2     3    1
    95     2     1    1
    96    74    75    1
    97    36    34   ar
    98    80    81    1
    99     3    10   am
   100    75    76    2
   101    84    81    1
   102    84    86    1
   103    81    82    1
   104    10    11    1
   105    13    12    2
   106    12    11    1
   107    11    14    1
   108    82    83    2
   109    16    15    1
   110    17    15    1
   111    14    15    1
