@<TRIPOS>MOLECULE
tmp/1huoF00.pdb
 123 115 0 0 0
SMALL
GASTEIGER

@<TRIPOS>ATOM
      1  N        -11.6960   37.8740   73.0730 N.3   140  ARG140     -0.1245
      2  CA       -13.0930   37.4550   72.9650 C.3   140  ARG140      0.1563
      3  C        -13.9470   38.1280   74.0320 C.2   140  ARG140      0.2260
      4  O        -13.4470   38.5320   75.0830 O.2   140  ARG140     -0.2867
      5  CB       -13.2230   35.9370   73.0930 C.3   140  ARG140      0.0307
      6  CG       -12.5510   35.1570   71.9840 C.3   140  ARG140      0.0489
      7  CD       -13.1890   33.7980   71.8270 C.3   140  ARG140      0.2205
      8  NE       -13.9210   33.6930   70.5640 N.pl3 140  ARG140     -0.0865
      9  CZ       -15.2080   33.3720   70.4600 C.cat 140  ARG140      0.5346
     10  NH1      -15.9270   33.1260   71.5460 N.pl3 140  ARG140      0.1354
     11  NH2      -15.7740   33.2800   69.2620 N.pl3 140  ARG140      0.1354
     12  N        -26.1950   35.9870   66.7610 N.3   170  GLY170     -0.1210
     13  CA       -24.8290   35.4990   66.8220 C.3   170  GLY170      0.1956
     14  C        -24.6250   34.4360   67.8800 C.2   170  GLY170      0.2612
     15  O        -25.5940   33.9040   68.4180 O.2   170  GLY170     -0.2717
     16  N        -23.3670   34.1310   68.1870 N.am  171  SER171     -0.1952
     17  CA       -23.0420   33.1150   69.1890 C.3   171  SER171      0.1924
     18  C        -23.7820   33.3240   70.5080 C.2   171  SER171      0.2314
     19  O        -24.1030   32.3590   71.2030 O.2   171  SER171     -0.2863
     20  CB       -21.5300   33.0720   69.4550 C.3   171  SER171      0.2116
     21  OG       -21.0900   34.2280   70.1530 O.3   171  SER171     -0.2180
     22  N        -26.9380   31.8110   70.2130 N.3   174  ARG174     -0.1245
     23  CA       -26.6920   30.3740   70.1790 C.3   174  ARG174      0.1563
     24  C        -26.4140   29.8850   71.5980 C.2   174  ARG174      0.2260
     25  O        -26.5250   28.6940   71.8850 O.2   174  ARG174     -0.2867
     26  CB       -25.5050   30.0390   69.2710 C.3   174  ARG174      0.0307
     27  CG       -25.7390   30.3280   67.7940 C.3   174  ARG174      0.0489
     28  CD       -24.6690   29.6810   66.9190 C.3   174  ARG174      0.2205
     29  NE       -23.3300   30.2160   67.1600 N.pl3 174  ARG174     -0.0865
     30  CZ       -22.5390   30.6970   66.2050 C.cat 174  ARG174      0.5346
     31  NH1      -22.9480   30.7110   64.9440 N.pl3 174  ARG174      0.1354
     32  NH2      -21.3340   31.1610   66.5040 N.pl3 174  ARG174      0.1354
     33  N        -17.3850   36.5280   69.5900 N.3   180  GLY180     -0.1210
     34  CA       -16.4250   37.3090   68.8300 C.3   180  GLY180      0.1956
     35  C        -16.8360   38.7740   68.7590 C.2   180  GLY180      0.2611
     36  O        -16.1500   39.6480   69.2950 O.2   180  GLY180     -0.2717
     37  N        -17.9860   39.0320   68.1390 N.am  181  ASP181     -0.1973
     38  CA       -18.5160   40.3870   67.9870 C.3   181  ASP181      0.1709
     39  C        -19.9980   40.4240   68.3670 C.2   181  ASP181      0.2293
     40  O        -20.6310   39.3690   68.4860 O.2   181  ASP181     -0.2864
     41  CB       -18.3630   40.8390   66.5300 C.3   181  ASP181      0.1436
     42  CG       -19.2330   40.0420   65.5770 C.2   181  ASP181      0.3671
     43  OD1      -19.4240   38.8340   65.8190 O.co2 181  ASP181     -0.2456
     44  OD2      -19.7440   40.6190   64.5930 O.co2 181  ASP181     -0.2456
     45  N        -23.6760   41.0730   67.3160 N.3   183  ASP183     -0.1239
     46  CA       -24.5900   41.1720   66.1850 C.3   183  ASP183      0.1674
     47  C        -25.9880   41.5070   66.6840 C.2   183  ASP183      0.2266
     48  O        -26.6320   40.6840   67.3300 O.2   183  ASP183     -0.2867
     49  CB       -24.6370   39.8460   65.4310 C.3   183  ASP183      0.1410
     50  CG       -23.2740   39.3850   64.9890 C.2   183  ASP183      0.3668
     51  OD1      -22.6490   38.5690   65.7140 O.co2 183  ASP183     -0.2456
     52  OD2      -22.8250   39.8550   63.9220 O.co2 183  ASP183     -0.2456
     53  N        -21.9230   45.0310   65.1080 N.3   247  ASP247     -0.1239
     54  CA       -22.5370   45.0390   63.7940 C.3   247  ASP247      0.1674
     55  C        -24.0560   45.0710   63.9270 C.2   247  ASP247      0.2266
     56  O        -24.6710   44.0690   64.2890 O.2   247  ASP247     -0.2867
     57  CB       -22.0710   43.7940   63.0160 C.3   247  ASP247      0.1410
     58  CG       -22.6600   43.7090   61.6130 C.2   247  ASP247      0.3668
     59  OD1      -22.7830   44.7530   60.9370 O.co2 247  ASP247     -0.2456
     60  OD2      -23.0010   42.5880   61.1760 O.co2 247  ASP247     -0.2456
     61  N        -30.4900   34.1340   59.1810 N.3   262  TYR262     -0.1227
     62  CA       -29.1790   34.5400   58.7220 C.3   262  TYR262      0.1736
     63  C        -28.2950   34.9700   59.8990 C.2   262  TYR262      0.2595
     64  O        -27.3210   34.2980   60.2230 O.2   262  TYR262     -0.2718
     65  CB       -29.3110   35.6570   57.6780 C.3   262  TYR262      0.0548
     66  CG       -28.1330   36.6060   57.6320 C.ar  262  TYR262     -0.0200
     67  CD1      -26.9880   36.2940   56.9060 C.ar  262  TYR262     -0.0009
     68  CD2      -28.1410   37.7870   58.3700 C.ar  262  TYR262     -0.0009
     69  CE1      -25.8800   37.1320   56.9250 C.ar  262  TYR262      0.0417
     70  CE2      -27.0450   38.6220   58.3970 C.ar  262  TYR262      0.0417
     71  CZ       -25.9140   38.2910   57.6760 C.ar  262  TYR262      0.1957
     72  OH       -24.8130   39.1100   57.7250 O.3   262  TYR262     -0.2866
     73  N        -28.7100   36.0150   60.6050 N.am  263  PHE263     -0.1962
     74  CA       -27.9330   36.5650   61.7140 C.3   263  PHE263      0.1771
     75  C        -27.5840   35.6890   62.9120 C.2   263  PHE263      0.2620
     76  O        -26.7570   36.0790   63.7360 O.2   263  PHE263     -0.2715
     77  CB       -28.5650   37.8680   62.2070 C.3   263  PHE263      0.0574
     78  CG       -27.5880   39.0060   62.3300 C.ar  263  PHE263     -0.0200
     79  CD1      -27.9410   40.1680   63.0030 C.ar  263  PHE263     -0.0042
     80  CD2      -26.3200   38.9200   61.7600 C.ar  263  PHE263     -0.0042
     81  CE1      -27.0480   41.2290   63.1040 C.ar  263  PHE263     -0.0003
     82  CE2      -25.4220   39.9750   61.8560 C.ar  263  PHE263     -0.0003
     83  CZ       -25.7880   41.1330   62.5290 C.ar  263  PHE263     -0.0000
     84  N        -28.1900   34.5150   63.0210 N.am  264  THR264     -0.1951
     85  CA       -27.8910   33.6480   64.1540 C.3   264  THR264      0.1897
     86  C        -27.1270   32.3980   63.7570 C.2   264  THR264      0.2313
     87  O        -26.0850   32.1030   64.3390 O.2   264  THR264     -0.2863
     88  CB       -29.1680   33.2480   64.9310 C.3   264  THR264      0.1794
     89  OG1      -29.8010   34.4180   65.4570 O.3   264  THR264     -0.2208
     90  CG2      -28.8230   32.3200   66.0880 C.3   264  THR264      0.0378
     91  N        -24.7900   30.3780   61.3990 N.3   266  SER266     -0.1202
     92  CA       -23.3380   30.2170   61.3830 C.3   266  SER266      0.2020
     93  C        -22.9480   30.3190   59.9180 C.2   266  SER266      0.2618
     94  O        -23.7320   29.9290   59.0530 O.2   266  SER266     -0.2717
     95  CB       -22.9360   28.8350   61.9220 C.3   266  SER266      0.2103
     96  OG       -21.5880   28.5120   61.6050 O.3   266  SER266     -0.2182
     97  N        -21.7620   30.8470   59.6280 N.am  267  ASP267     -0.1973
     98  CA       -21.3210   30.9510   58.2370 C.3   267  ASP267      0.1709
     99  C        -21.4250   29.5820   57.5740 C.2   267  ASP267      0.2293
    100  O        -21.6740   29.4730   56.3700 O.2   267  ASP267     -0.2864
    101  CB       -19.8810   31.4710   58.1450 C.3   267  ASP267      0.1436
    102  CG       -18.9150   30.6850   58.9970 C.2   267  ASP267      0.3671
    103  OD1      -18.9960   30.7990   60.2390 O.co2 267  ASP267     -0.2456
    104  OD2      -18.0670   29.9690   58.4250 O.co2 267  ASP267     -0.2456
    105  N        -25.7560   28.3490   57.9720 N.3   270  ASN270     -0.1240
    106  CA       -26.4970   29.0260   56.9140 C.3   270  ASN270      0.1653
    107  C        -26.1370   28.4470   55.5550 C.2   270  ASN270      0.2266
    108  O        -27.0040   28.2620   54.7210 O.2   270  ASN270     -0.2867
    109  CB       -26.1850   30.5240   56.8930 C.3   270  ASN270      0.1155
    110  CG       -26.8230   31.2830   58.0410 C.2   270  ASN270      0.2627
    111  OD1      -27.1940   30.7090   59.0690 O.2   270  ASN270     -0.2716
    112  ND2      -26.9420   32.5910   57.8710 N.am  270  ASN270     -0.0877
    113  N        -28.9010   26.8320   53.4760 N.3   274  ARG274     -0.1245
    114  CA       -29.1750   27.4820   52.2020 C.3   274  ARG274      0.1563
    115  C        -28.8500   26.5500   51.0480 C.2   274  ARG274      0.2260
    116  O        -29.5580   26.5360   50.0430 O.2   274  ARG274     -0.2867
    117  CB       -28.3650   28.7770   52.0640 C.3   274  ARG274      0.0307
    118  CG       -28.7330   29.8640   53.0720 C.3   274  ARG274      0.0489
    119  CD       -27.9520   31.1600   52.8330 C.3   274  ARG274      0.2205
    120  NE       -28.2700   32.1670   53.8430 N.pl3 274  ARG274     -0.0865
    121  CZ       -28.1740   33.4830   53.6620 C.cat 274  ARG274      0.5346
    122  NH1      -27.7680   33.9800   52.4980 N.pl3 274  ARG274      0.1354
    123  NH2      -28.4810   34.3060   54.6610 N.pl3 274  ARG274      0.1354
@<TRIPOS>BOND
     1   116   115    2
     2   115   114    1
     3   117   114    1
     4   117   118    1
     5   114   113    1
     6   122   121    1
     7   119   118    1
     8   119   120    1
     9   121   120    2
    10   121   123    1
    11   108   107    2
    12   107   106    1
    13   100    99    2
    14   109   106    1
    15   109   110    1
    16    67    69   ar
    17    67    66   ar
    18   106   105    1
    19    69    71   ar
    20    99    98    1
    21    66    65    1
    22    66    68   ar
    23    71    72    1
    24    71    70   ar
    25    65    62    1
    26   112   110   am
    27   110   111    2
    28   101    98    1
    29   101   102    1
    30    98    97    1
    31    68    70   ar
    32   104   102   ar
    33    62    61    1
    34    62    63    1
    35   102   103   ar
    36    94    93    2
    37    97    93   am
    38    63    64    2
    39    63    73   am
    40    93    92    1
    41    73    74    1
    42    59    58   ar
    43    60    58   ar
    44    92    91    1
    45    92    95    1
    46    96    95    1
    47    58    57    1
    48    74    77    1
    49    74    75    1
    50    80    82   ar
    51    80    78   ar
    52    82    83   ar
    53    77    78    1
    54    78    79   ar
    55    83    81   ar
    56    75    84   am
    57    75    76    2
    58    79    81   ar
    59    57    54    1
    60    84    85    1
    61    86    85    1
    62    86    87    2
    63    54    55    1
    64    54    53    1
    65    52    50   ar
    66    55    56    2
    67    85    88    1
    68    44    42   ar
    69    88    89    1
    70    88    90    1
    71    31    30    1
    72    50    49    1
    73    50    51   ar
    74    49    46    1
    75    42    43   ar
    76    42    41    1
    77    46    47    1
    78    46    45    1
    79    30    32    1
    80    30    29    2
    81    41    38    1
    82    47    48    2
    83    12    13    1
    84    13    14    1
    85    28    29    1
    86    28    27    1
    87    27    26    1
    88    14    16   am
    89    14    15    2
    90    38    37    1
    91    38    39    1
    92    37    35   am
    93    16    17    1
    94    39    40    2
    95    35    34    1
    96    35    36    2
    97    34    33    1
    98    17    20    1
    99    17    18    1
   100    11     9    1
   101    26    23    1
   102    20    21    1
   103    23    22    1
   104    23    24    1
   105     9     8    2
   106     9    10    1
   107    18    19    2
   108     8     7    1
   109    24    25    2
   110     7     6    1
   111     6     5    1
   112     2     1    1
   113     2     5    1
   114     2     3    1
   115     3     4    2
