@<TRIPOS>MOLECULE
tmp/1huxA00.pdb
 160 145 0 0 0
SMALL
GASTEIGER

@<TRIPOS>ATOM
      1  N         26.9500   34.7570   42.9600 N.3     8  ASP8       -0.1239
      2  CA        27.0530   35.3960   44.2700 C.3     8  ASP8        0.1674
      3  C         26.2450   36.6870   44.2690 C.2     8  ASP8        0.2266
      4  O         26.7320   37.7200   43.8210 O.2     8  ASP8       -0.2867
      5  CB        28.5220   35.7180   44.5630 C.3     8  ASP8        0.1410
      6  CG        28.7350   36.2610   45.9640 C.2     8  ASP8        0.3668
      7  OD1       29.8590   36.7310   46.2510 O.co2   8  ASP8       -0.2456
      8  OD2       27.7790   36.2060   46.7790 O.co2   8  ASP8       -0.2456
      9  N         25.1780   39.6300   46.1100 N.3    10  GLY10      -0.1210
     10  CA        25.3600   40.4080   47.3260 C.3    10  GLY10       0.1956
     11  C         24.3710   41.5490   47.4830 C.2    10  GLY10       0.2613
     12  O         23.4350   41.6820   46.6900 O.2    10  GLY10      -0.2717
     13  N         24.5670   42.3730   48.5090 N.am   11  SER11      -0.1938
     14  CA        23.6800   43.5130   48.7620 C.3    11  SER11       0.2055
     15  C         24.0510   44.7130   47.8730 C.2    11  SER11       0.2644
     16  O         23.2230   45.5760   47.5800 O.2    11  SER11      -0.2714
     17  CB        23.7670   43.9140   50.2350 C.3    11  SER11       0.2130
     18  OG        25.1010   44.2640   50.5710 O.3    11  SER11      -0.2179
     19  N         25.3040   44.7410   47.4380 N.am   12  THR12      -0.1936
     20  CA        25.8290   45.8070   46.5970 C.3    12  THR12       0.2028
     21  C         25.8700   45.4080   45.1310 C.2    12  THR12       0.2642
     22  O         25.4970   46.1740   44.2470 O.2    12  THR12      -0.2714
     23  CB        27.2750   46.1750   47.0470 C.3    12  THR12       0.1808
     24  OG1       27.1990   46.9580   48.2370 O.3    12  THR12      -0.2208
     25  CG2       28.0410   46.9420   45.9670 C.3    12  THR12       0.0379
     26  N         26.3430   44.2020   44.8720 N.am   13  ALA13      -0.1977
     27  CA        26.4530   43.7580   43.5030 C.3    13  ALA13       0.1597
     28  C         26.1820   42.2810   43.3920 C.2    13  ALA13       0.2287
     29  O         26.0890   41.5780   44.3920 O.2    13  ALA13      -0.2864
     30  CB        27.8390   44.0640   42.9860 C.3    13  ALA13       0.0319
     31  N         27.7510   39.0170   41.4320 N.3    15  LYS15      -0.1245
     32  CA        28.8940   38.5200   40.6590 C.3    15  LYS15       0.1561
     33  C         28.5750   37.1260   40.1390 C.2    15  LYS15       0.2260
     34  O         27.8140   36.3720   40.7680 O.2    15  LYS15      -0.2867
     35  CB        30.1720   38.4660   41.5150 C.3    15  LYS15       0.0271
     36  CG        30.8390   39.8240   41.8630 C.3    15  LYS15       0.0035
     37  CD        30.0190   40.6400   42.8480 C.3    15  LYS15       0.0206
     38  CE        29.7530   39.8960   44.1470 C.3    15  LYS15       0.1093
     39  NZ        28.8310   40.6730   45.0300 N.3    15  LYS15      -0.1314
     40  N         27.3640   31.7960   52.1590 N.3    81  GLU81      -0.1245
     41  CA        28.4120   32.6540   51.6370 C.3    81  GLU81       0.1567
     42  C         29.7410   32.3150   52.2800 C.2    81  GLU81       0.2260
     43  O         30.7920   32.4740   51.6510 O.2    81  GLU81      -0.2867
     44  CB        28.0660   34.1240   51.8700 C.3    81  GLU81       0.0388
     45  CG        29.0630   35.0970   51.2530 C.3    81  GLU81       0.1160
     46  CD        28.4320   36.0010   50.2170 C.2    81  GLU81       0.3649
     47  OE1       27.3840   36.6130   50.5240 O.co2  81  GLU81      -0.2457
     48  OE2       28.9880   36.1030   49.1030 O.co2  81  GLU81      -0.2457
     49  N         36.9660   38.7520   54.4460 N.3   101  ASP101     -0.1239
     50  CA        36.0590   39.2170   53.3940 C.3   101  ASP101      0.1674
     51  C         35.2910   40.4720   53.7550 C.2   101  ASP101      0.2266
     52  O         34.3540   40.4280   54.5670 O.2   101  ASP101     -0.2867
     53  CB        35.0470   38.1200   53.0280 C.3   101  ASP101      0.1410
     54  CG        33.9450   38.6190   52.0920 C.2   101  ASP101      0.3668
     55  OD1       32.7540   38.5360   52.4740 O.co2 101  ASP101     -0.2456
     56  OD2       34.2800   39.0940   50.9790 O.co2 101  ASP101     -0.2456
     57  N         32.8400   43.3490   52.4540 N.3   103  GLY103     -0.1210
     58  CA        31.9430   43.7430   51.3910 C.3   103  GLY103      0.1956
     59  C         31.1290   44.9110   51.8970 C.2   103  GLY103      0.2612
     60  O         31.3280   45.3350   53.0320 O.2   103  GLY103     -0.2717
     61  N         30.2310   45.4540   51.0830 N.am  104  GLY104     -0.1956
     62  CA        29.4170   46.5510   51.5690 C.3   104  GLY104      0.1869
     63  C         28.4950   45.9470   52.6070 C.2   104  GLY104      0.2309
     64  O         28.1610   44.7580   52.5280 O.2   104  GLY104     -0.2863
     65  N         28.8070   44.5850   55.4820 N.3   106  ASP106     -0.1239
     66  CA        29.2280   43.4750   56.3570 C.3   106  ASP106      0.1674
     67  C         30.7020   43.0370   56.2020 C.2   106  ASP106      0.2266
     68  O         31.3280   43.2200   55.1440 O.2   106  ASP106     -0.2867
     69  CB        28.3280   42.2620   56.1240 C.3   106  ASP106      0.1410
     70  CG        28.6810   41.5260   54.8490 C.2   106  ASP106      0.3668
     71  OD1       28.6390   42.1570   53.7660 O.co2 106  ASP106     -0.2456
     72  OD2       29.0160   40.3230   54.9330 O.co2 106  ASP106     -0.2456
     73  N         33.5800   39.7700   57.5940 N.3   108  LYS108     -0.1245
     74  CA        33.6280   38.4160   58.1540 C.3   108  LYS108      0.1561
     75  C         34.9930   37.7670   57.9280 C.2   108  LYS108      0.2260
     76  O         35.5730   37.8460   56.8370 O.2   108  LYS108     -0.2867
     77  CB        32.5040   37.5550   57.5580 C.3   108  LYS108      0.0271
     78  CG        32.5810   37.3370   56.0600 C.3   108  LYS108      0.0035
     79  CD        31.3810   36.5400   55.5750 C.3   108  LYS108      0.0206
     80  CE        30.2590   37.4420   55.0500 C.3   108  LYS108      0.1093
     81  NZ        30.5350   37.9420   53.6610 N.3   108  LYS108     -0.1314
     82  N         32.3470   48.3090   53.7260 N.3   131  GLY131     -0.1225
     83  CA        32.6410   49.1920   52.6150 C.3   131  GLY131      0.1811
     84  C         31.7360   50.4050   52.6930 C.2   131  GLY131      0.2280
     85  O         31.9710   51.4290   52.0350 O.2   131  GLY131     -0.2866
     86  N         33.5550   53.1940   54.3370 N.3   134  LEU134     -0.1231
     87  CA        34.3710   53.8590   53.3210 C.3   134  LEU134      0.1693
     88  C         33.5650   54.7590   52.3980 C.2   134  LEU134      0.2592
     89  O         34.0790   55.7520   51.8960 O.2   134  LEU134     -0.2718
     90  CB        35.1290   52.8210   52.4800 C.3   134  LEU134      0.0284
     91  CG        36.1860   51.9980   53.2120 C.3   134  LEU134      0.0019
     92  CD1       36.7320   50.8990   52.3190 C.3   134  LEU134      0.0001
     93  CD2       37.3040   52.9310   53.6760 C.3   134  LEU134      0.0001
     94  N         32.3050   54.4140   52.1650 N.am  135  ASP135     -0.1974
     95  CA        31.4690   55.2370   51.2960 C.3   135  ASP135      0.1709
     96  C         31.1900   56.5490   51.9860 C.2   135  ASP135      0.2293
     97  O         31.5210   57.6220   51.4740 O.2   135  ASP135     -0.2864
     98  CB        30.1470   54.5370   50.9760 C.3   135  ASP135      0.1436
     99  CG        30.2890   53.5070   49.8800 C.2   135  ASP135      0.3671
    100  OD1       30.7660   53.8680   48.7780 O.co2 135  ASP135     -0.2456
    101  OD2       29.9230   52.3390   50.1270 O.co2 135  ASP135     -0.2456
    102  N         35.3860   56.3520   46.0130 N.3   145  VAL145     -0.1231
    103  CA        35.7510   55.1750   46.7860 C.3   145  VAL145      0.1692
    104  C         36.8840   54.3740   46.1530 C.2   145  VAL145      0.2592
    105  O         37.6730   53.7460   46.8630 O.2   145  VAL145     -0.2718
    106  CB        34.5400   54.2600   46.9760 C.3   145  VAL145      0.0266
    107  CG1       34.9400   52.9970   47.7230 C.3   145  VAL145      0.0020
    108  CG2       33.4660   54.9970   47.7350 C.3   145  VAL145      0.0020
    109  N         36.9770   54.3940   44.8270 N.am  146  SER146     -0.1952
    110  CA        38.0340   53.6540   44.1400 C.3   146  SER146      0.1924
    111  C         39.3190   54.4700   43.9780 C.2   146  SER146      0.2314
    112  O         40.2680   54.0530   43.3040 O.2   146  SER146     -0.2863
    113  CB        37.5300   53.1770   42.7790 C.3   146  SER146      0.2116
    114  OG        36.6440   54.1330   42.2310 O.3   146  SER146     -0.2180
    115  N         42.3420   54.3020   47.8880 N.3   149  ALA149     -0.1245
    116  CA        43.5960   53.5790   47.9490 C.3   149  ALA149      0.1562
    117  C         44.7540   54.4150   47.4140 C.2   149  ALA149      0.2260
    118  O         45.7580   54.6200   48.1080 O.2   149  ALA149     -0.2867
    119  CB        43.4920   52.2700   47.1800 C.3   149  ALA149      0.0290
    120  N         36.5310   40.1530   48.6580 N.3   215  GLY215     -0.1210
    121  CA        35.4720   41.1450   48.6450 C.3   215  GLY215      0.1956
    122  C         35.8560   42.3240   47.7770 C.2   215  GLY215      0.2612
    123  O         36.9950   42.4220   47.3070 O.2   215  GLY215     -0.2717
    124  N         34.9150   43.2300   47.5530 N.am  216  GLY216     -0.1942
    125  CA        35.2270   44.3640   46.7110 C.3   216  GLY216      0.2014
    126  C         36.2590   45.2580   47.3480 C.2   216  GLY216      0.2638
    127  O         37.2030   45.6960   46.6830 O.2   216  GLY216     -0.2714
    128  N         36.0890   45.5300   48.6390 N.am  217  VAL217     -0.1977
    129  CA        37.0300   46.3890   49.3420 C.3   217  VAL217      0.1596
    130  C         38.4510   45.8280   49.2430 C.2   217  VAL217      0.2287
    131  O         39.4340   46.5390   49.4600 O.2   217  VAL217     -0.2864
    132  CB        36.6320   46.5390   50.8170 C.3   217  VAL217      0.0276
    133  CG1       37.5470   47.5290   51.4990 C.3   217  VAL217      0.0022
    134  CG2       35.1840   46.9970   50.9100 C.3   217  VAL217      0.0022
    135  N         40.1970   45.3040   46.8380 N.3   219  GLN219     -0.1231
    136  CA        40.9690   46.0980   45.8870 C.3   219  GLN219      0.1698
    137  C         41.7340   47.2250   46.5630 C.2   219  GLN219      0.2592
    138  O         42.8950   47.4890   46.2280 O.2   219  GLN219     -0.2718
    139  CB        40.0350   46.6720   44.8340 C.3   219  GLN219      0.0381
    140  CG        39.3940   45.6150   43.9730 C.3   219  GLN219      0.0905
    141  CD        38.1660   46.1290   43.2800 C.2   219  GLN219      0.2608
    142  OE1       38.2060   47.1580   42.6130 O.2   219  GLN219     -0.2717
    143  NE2       37.0590   45.4160   43.4320 N.am  219  GLN219     -0.0878
    144  N         41.0710   47.8790   47.5160 N.am  220  ASN220     -0.1974
    145  CA        41.6530   48.9910   48.2640 C.3   220  ASN220      0.1688
    146  C         42.9340   48.5460   48.9690 C.2   220  ASN220      0.2292
    147  O         42.8920   48.0910   50.1060 O.2   220  ASN220     -0.2864
    148  CB        40.6420   49.5020   49.2930 C.3   220  ASN220      0.1181
    149  CG        41.0440   50.8460   49.8930 C.2   220  ASN220      0.2629
    150  OD1       42.2220   51.0970   50.1590 O.2   220  ASN220     -0.2716
    151  ND2       40.0590   51.7110   50.1270 N.am  220  ASN220     -0.0877
    152  N         36.8810   40.0200   44.2930 N.3   242  GLN242     -0.1245
    153  CA        35.4400   40.2540   44.4340 C.3   242  GLN242      0.1566
    154  C         34.5550   39.1650   43.8290 C.2   242  GLN242      0.2260
    155  O         33.3410   39.1300   44.0660 O.2   242  GLN242     -0.2867
    156  CB        35.0870   41.6150   43.8260 C.3   242  GLN242      0.0367
    157  CG        33.6310   42.0240   43.9850 C.3   242  GLN242      0.0905
    158  CD        33.3800   43.4460   43.5120 C.2   242  GLN242      0.2608
    159  OE1       34.1500   43.9970   42.6980 O.2   242  GLN242     -0.2717
    160  NE2       32.2970   44.0460   44.0010 N.am  242  GLN242     -0.0878
@<TRIPOS>BOND
     1    33    32    1
     2    33    34    2
     3    32    31    1
     4    32    35    1
     5    35    36    1
     6    36    37    1
     7   114   113    1
     8   142   141    2
     9   159   158    2
    10   113   110    1
    11    37    38    1
    12     1     2    1
    13    30    27    1
    14   141   143   am
    15   141   140    1
    16   112   111    2
    17    28    27    1
    18    28    29    2
    19    27    26    1
    20   158   157    1
    21   158   160   am
    22     4     3    2
    23   156   157    1
    24   156   153    1
    25   154   155    2
    26   154   153    1
    27   140   139    1
    28   111   110    1
    29   110   109    1
    30    38    39    1
    31    22    21    2
    32     3     2    1
    33     2     5    1
    34   152   153    1
    35     5     6    1
    36   109   104   am
    37   139   136    1
    38    26    21   am
    39    21    20    1
    40   136   137    1
    41   136   135    1
    42     6     7   ar
    43     6     8   ar
    44    25    23    1
    45   102   103    1
    46     9    10    1
    47   104   103    1
    48   104   105    2
    49   138   137    2
    50   137   144   am
    51    20    23    1
    52    20    19    1
    53   127   126    2
    54    12    11    2
    55   125   126    1
    56   125   124    1
    57   103   106    1
    58   106   107    1
    59   106   108    1
    60    23    24    1
    61   119   116    1
    62   123   122    2
    63    10    11    1
    64   126   128   am
    65   117   116    1
    66   117   118    2
    67    19    15   am
    68    11    13   am
    69   144   145    1
    70   124   122   am
    71    16    15    2
    72   122   121    1
    73    15    14    1
    74   115   116    1
    75   145   146    1
    76   145   148    1
    77    13    14    1
    78   128   129    1
    79   121   120    1
    80    14    17    1
    81   100    99   ar
    82   146   147    2
    83    48    46   ar
    84   130   129    1
    85   130   131    2
    86   148   149    1
    87   129   132    1
    88    99   101   ar
    89    99    98    1
    90   149   151   am
    91   149   150    2
    92    46    47   ar
    93    46    45    1
    94    17    18    1
    95   132   134    1
    96   132   133    1
    97    98    95    1
    98    56    54   ar
    99    61    62    1
   100    61    59   am
   101    45    44    1
   102    95    96    1
   103    95    94    1
   104    58    59    1
   105    58    57    1
   106    97    96    2
   107    62    63    1
   108    41    44    1
   109    41    40    1
   110    41    42    1
   111    43    42    2
   112    89    88    2
   113    59    60    2
   114    85    84    2
   115    54    55   ar
   116    54    53    1
   117    94    88   am
   118    92    91    1
   119    88    87    1
   120    90    91    1
   121    90    87    1
   122    64    63    2
   123    83    84    1
   124    83    82    1
   125    53    50    1
   126    91    93    1
   127    87    86    1
   128    50    51    1
   129    50    49    1
   130    81    80    1
   131    51    52    2
   132    71    70   ar
   133    70    72   ar
   134    70    69    1
   135    80    79    1
   136    68    67    2
   137    65    66    1
   138    79    78    1
   139    78    77    1
   140    69    66    1
   141    67    66    1
   142    76    75    2
   143    77    74    1
   144    73    74    1
   145    75    74    1
