@<TRIPOS>MOLECULE
tmp/1huzE00.pdb
 79 72 0 0 0
SMALL
GASTEIGER

@<TRIPOS>ATOM
      1  N         39.1130   24.4110   28.9000 N.3   140  ARG140     -0.1245
      2  CA        37.9720   23.9160   28.1330 C.3   140  ARG140      0.1563
      3  C         36.6660   24.4710   28.7200 C.2   140  ARG140      0.2260
      4  O         36.5740   24.7500   29.9220 O.2   140  ARG140     -0.2867
      5  CB        37.9510   22.3880   28.1230 C.3   140  ARG140      0.0307
      6  CG        39.0860   21.7730   27.3270 C.3   140  ARG140      0.0489
      7  CD        38.7480   20.3500   26.9360 C.3   140  ARG140      0.2205
      8  NE        37.5790   20.3130   26.0600 N.pl3 140  ARG140     -0.0865
      9  CZ        37.6210   19.9530   24.7810 C.cat 140  ARG140      0.5346
     10  NH1       38.7770   19.5940   24.2330 N.pl3 140  ARG140      0.1354
     11  NH2       36.5140   19.9720   24.0440 N.pl3 140  ARG140      0.1354
     12  N         29.5650   22.9460   16.2860 N.3   170  GLY170     -0.1210
     13  CA        30.8060   22.5210   16.9020 C.3   170  GLY170      0.1956
     14  C         30.5320   21.2690   17.6840 C.2   170  GLY170      0.2612
     15  O         29.6970   20.4620   17.2670 O.2   170  GLY170     -0.2717
     16  N         31.1990   21.1250   18.8280 N.am  171  SER171     -0.1952
     17  CA        31.0400   19.9490   19.6650 C.3   171  SER171      0.1924
     18  C         29.7940   19.9890   20.5480 C.2   171  SER171      0.2314
     19  O         29.4710   19.0120   21.2290 O.2   171  SER171     -0.2863
     20  CB        32.2750   19.7690   20.5350 C.3   171  SER171      0.2116
     21  OG        32.3180   20.7500   21.5560 O.3   171  SER171     -0.2180
     22  N         26.9250   18.2320   18.8640 N.3   174  ARG174     -0.1245
     23  CA        27.3390   16.8220   18.8040 C.3   174  ARG174      0.1563
     24  C         27.1750   16.0960   20.1180 C.2   174  ARG174      0.2260
     25  O         27.5820   14.9520   20.2440 O.2   174  ARG174     -0.2867
     26  CB        28.8020   16.6980   18.3890 C.3   174  ARG174      0.0307
     27  CG        29.0830   16.9740   16.9190 C.3   174  ARG174      0.0489
     28  CD        30.3380   16.2790   16.4700 C.3   174  ARG174      0.2205
     29  NE        31.4530   16.4600   17.3920 N.pl3 174  ARG174     -0.0865
     30  CZ        32.4490   17.3350   17.2200 C.cat 174  ARG174      0.5346
     31  NH1       32.4800   18.1310   16.1620 N.pl3 174  ARG174      0.1354
     32  NH2       33.4450   17.3950   18.0980 N.pl3 174  ARG174      0.1354
     33  N         33.5140   21.9270   25.5610 N.3   179  SER179     -0.1202
     34  CA        33.9700   22.2800   24.2350 C.3   179  SER179      0.2020
     35  C         35.1510   23.2320   24.2830 C.2   179  SER179      0.2619
     36  O         35.4070   23.8730   25.3060 O.2   179  SER179     -0.2717
     37  CB        32.8140   22.8520   23.4130 C.3   179  SER179      0.2103
     38  OG        32.0050   23.7370   24.1670 O.3   179  SER179     -0.2182
     39  N         35.9410   23.2230   23.2100 N.am  180  GLY180     -0.1942
     40  CA        37.0980   24.0980   23.1180 C.3   180  GLY180      0.2014
     41  C         36.7250   25.5520   22.9060 C.2   180  GLY180      0.2638
     42  O         37.3910   26.4550   23.4230 O.2   180  GLY180     -0.2714
     43  N         35.6420   25.7810   22.1710 N.am  181  ASP181     -0.1971
     44  CA        35.1740   27.1310   21.8990 C.3   181  ASP181      0.1709
     45  C         33.7070   27.0970   21.4660 C.2   181  ASP181      0.2293
     46  O         33.0840   26.0370   21.4320 O.2   181  ASP181     -0.2864
     47  CB        36.0520   27.8220   20.8300 C.3   181  ASP181      0.1436
     48  CG        35.9470   27.1750   19.4260 C.2   181  ASP181      0.3671
     49  OD1       35.2920   26.1100   19.2810 O.co2 181  ASP181     -0.2456
     50  OD2       36.5370   27.7420   18.4660 O.co2 181  ASP181     -0.2456
     51  N         31.0900   27.7700   18.5260 N.3   183  ASP183     -0.1239
     52  CA        30.9370   27.8840   17.0860 C.3   183  ASP183      0.1674
     53  C         29.4610   28.1310   16.8130 C.2   183  ASP183      0.2266
     54  O         28.6280   27.2780   17.1350 O.2   183  ASP183     -0.2867
     55  CB        31.3770   26.5720   16.4350 C.3   183  ASP183      0.1410
     56  CG        32.8660   26.3170   16.5830 C.2   183  ASP183      0.3668
     57  OD1       33.2590   25.1710   16.9030 O.co2 183  ASP183     -0.2456
     58  OD2       33.6610   27.2590   16.3550 O.co2 183  ASP183     -0.2456
     59  N         29.4850   21.5270   12.1590 N.3   264  THR264     -0.1218
     60  CA        29.1230   20.5900   13.2360 C.3   264  THR264      0.1862
     61  C         30.0850   19.4290   13.3180 C.2   264  THR264      0.2287
     62  O         30.8830   19.3300   14.2240 O.2   264  THR264     -0.2866
     63  CB        27.7200   20.0050   13.0480 C.3   264  THR264      0.1770
     64  OG1       26.7420   21.0050   13.3000 O.3   264  THR264     -0.2211
     65  CG2       27.4390   18.8400   14.0070 C.3   264  THR264      0.0375
     66  N         32.8640   17.3690   12.6280 N.3   266  SER266     -0.1202
     67  CA        34.1630   17.1610   13.2550 C.3   266  SER266      0.2020
     68  C         35.2080   17.3760   12.1620 C.2   266  SER266      0.2618
     69  O         35.0320   16.9650   11.0170 O.2   266  SER266     -0.2717
     70  CB        34.2580   15.7510   13.8410 C.3   266  SER266      0.2103
     71  OG        35.5250   15.5590   14.4500 O.3   266  SER266     -0.2182
     72  N         36.3090   18.0380   12.4630 N.am  267  ASP267     -0.1973
     73  CA        37.2820   18.2810   11.3870 C.3   267  ASP267      0.1709
     74  C         37.6210   16.9560   10.6820 C.2   267  ASP267      0.2293
     75  O         37.8200   16.9150    9.4610 O.2   267  ASP267     -0.2864
     76  CB        38.5530   18.9730   11.8960 C.3   267  ASP267      0.1436
     77  CG        39.1420   18.3490   13.1570 C.2   267  ASP267      0.3671
     78  OD1       38.4380   18.2960   14.2280 O.co2 267  ASP267     -0.2456
     79  OD2       40.3470   17.8970   13.1400 O.co2 267  ASP267     -0.2456
@<TRIPOS>BOND
     1    75    74    2
     2    74    73    1
     3    69    68    2
     4    73    76    1
     5    73    72    1
     6    76    77    1
     7    59    60    1
     8    68    72   am
     9    68    67    1
    10    66    67    1
    11    63    60    1
    12    63    64    1
    13    63    65    1
    14    79    77   ar
    15    77    78   ar
    16    60    61    1
    17    67    70    1
    18    61    62    2
    19    70    71    1
    20    31    30    1
    21    12    13    1
    22    58    56   ar
    23    55    56    1
    24    55    52    1
    25    28    27    1
    26    28    29    1
    27    56    57   ar
    28    53    52    1
    29    53    54    2
    30    13    14    1
    31    27    26    1
    32    52    51    1
    33    30    29    2
    34    30    32    1
    35    15    14    2
    36    14    16   am
    37    26    23    1
    38    50    48   ar
    39    23    22    1
    40    23    24    1
    41    16    17    1
    42    49    48   ar
    43    48    47    1
    44    17    20    1
    45    17    18    1
    46    24    25    2
    47    20    21    1
    48    18    19    2
    49    47    44    1
    50    46    45    2
    51    45    44    1
    52    44    43    1
    53    43    41   am
    54    41    40    1
    55    41    42    2
    56    40    39    1
    57    39    35   am
    58    37    38    1
    59    37    34    1
    60    11     9    1
    61    10     9    1
    62    34    35    1
    63    34    33    1
    64    35    36    2
    65     9     8    2
    66     8     7    1
    67     7     6    1
    68     6     5    1
    69     5     2    1
    70     2     3    1
    71     2     1    1
    72     3     4    2
