@<TRIPOS>MOLECULE
tmp/1hv5E02.pdb
 178 177 0 0 0
SMALL
GASTEIGER

@<TRIPOS>ATOM
      1  N         52.8650   43.8450   17.5170 N.3    72  LEU72      -0.1245
      2  CA        51.5190   43.6030   18.0540 C.3    72  LEU72       0.1561
      3  C         50.7580   44.8970   18.2990 C.2    72  LEU72       0.2260
      4  O         50.6150   45.3560   19.4360 O.2    72  LEU72      -0.2867
      5  CB        51.8040   42.8910   19.3890 C.3    72  LEU72       0.0270
      6  CG        52.7370   41.6630   19.3810 C.3    72  LEU72       0.0019
      7  CD1       53.0960   41.2920   20.7960 C.3    72  LEU72       0.0001
      8  CD2       52.0820   40.4860   18.6900 C.3    72  LEU72       0.0001
      9  N         44.3590   47.8550   19.6430 N.3    75  ASP75      -0.1239
     10  CA        43.1320   48.1130   18.8920 C.3    75  ASP75       0.1674
     11  C         42.1180   49.1060   19.4760 C.2    75  ASP75       0.2266
     12  O         40.9230   48.9700   19.2200 O.2    75  ASP75      -0.2867
     13  CB        42.4430   46.7650   18.6870 C.3    75  ASP75       0.1410
     14  CG        42.2220   46.0230   20.0130 C.2    75  ASP75       0.3668
     15  OD1       42.6650   46.5450   21.0520 O.co2  75  ASP75      -0.2456
     16  OD2       41.6170   44.9330   20.0270 O.co2  75  ASP75      -0.2456
     17  N         38.4900   44.9610   22.8910 N.3    79  GLY79      -0.1210
     18  CA        39.4220   44.0440   22.2560 C.3    79  GLY79       0.1956
     19  C         40.5700   43.6160   23.1600 C.2    79  GLY79       0.2612
     20  O         40.3530   43.2260   24.3060 O.2    79  GLY79      -0.2717
     21  N         41.7920   43.6720   22.6360 N.am   80  ILE80      -0.1965
     22  CA        42.9730   43.3170   23.3990 C.3    80  ILE80       0.1727
     23  C         43.1690   44.4340   24.4190 C.2    80  ILE80       0.2616
     24  O         43.0570   45.6080   24.0810 O.2    80  ILE80      -0.2715
     25  CB        44.2280   43.2270   22.4770 C.3    80  ILE80       0.0290
     26  CG1       43.9650   42.2540   21.3260 C.3    80  ILE80       0.0022
     27  CG2       45.4590   42.7790   23.2610 C.3    80  ILE80       0.0023
     28  CD1       43.5170   40.8940   21.7700 C.3    80  ILE80       0.0001
     29  N         43.4410   44.0660   25.6670 N.am   81  LEU81      -0.1963
     30  CA        43.6570   45.0360   26.7390 C.3    81  LEU81       0.1728
     31  C         45.1410   45.0950   27.1070 C.2    81  LEU81       0.2616
     32  O         45.6070   46.0450   27.7340 O.2    81  LEU81      -0.2715
     33  CB        42.8750   44.6350   27.9890 C.3    81  LEU81       0.0311
     34  CG        41.4450   44.1540   27.8130 C.3    81  LEU81       0.0022
     35  CD1       41.0100   43.5490   29.1330 C.3    81  LEU81       0.0001
     36  CD2       40.5450   45.2800   27.3700 C.3    81  LEU81       0.0001
     37  N         45.8740   44.0610   26.7320 N.am   82  ALA82      -0.1963
     38  CA        47.2860   44.0020   27.0310 C.3    82  ALA82       0.1728
     39  C         47.8870   42.7450   26.4680 C.2    82  ALA82       0.2616
     40  O         47.1960   41.8690   25.9400 O.2    82  ALA82      -0.2715
     41  CB        47.5020   44.0360   28.5350 C.3    82  ALA82       0.0334
     42  N         49.1990   42.6830   26.5870 N.am   83  HIS83      -0.1959
     43  CA        49.9610   41.5320   26.1540 C.3    83  HIS83       0.1787
     44  C         51.3870   41.6070   26.6830 C.2    83  HIS83       0.2620
     45  O         51.8590   42.6690   27.0990 O.2    83  HIS83      -0.2715
     46  CB        49.9330   41.3990   24.6250 C.3    83  HIS83       0.0785
     47  CG        50.4380   42.5990   23.8990 C.ar   83  HIS83       0.0821
     48  ND1       49.8830   43.0310   22.7150 N.ar   83  HIS83      -0.2267
     49  CD2       51.4420   43.4580   24.1810 C.ar   83  HIS83       0.1154
     50  CE1       50.5210   44.1070   22.2980 C.ar   83  HIS83       0.1986
     51  NE2       51.4710   44.3850   23.1700 N.ar   83  HIS83      -0.2212
     52  N         52.0540   40.4610   26.6820 N.am   84  ALA84      -0.1963
     53  CA        53.4140   40.3580   27.1710 C.3    84  ALA84       0.1728
     54  C         54.2100   39.5510   26.1750 C.2    84  ALA84       0.2616
     55  O         53.7460   38.5370   25.6760 O.2    84  ALA84      -0.2715
     56  CB        53.4180   39.6600   28.5270 C.3    84  ALA84       0.0334
     57  N         55.4160   39.9770   25.8730 N.am   85  PHE85      -0.1974
     58  CA        56.1960   39.2100   24.9270 C.3    85  PHE85       0.1639
     59  C         57.6760   39.3280   25.2510 C.2    85  PHE85       0.2290
     60  O         58.0910   40.1900   26.0270 O.2    85  PHE85      -0.2864
     61  CB        55.9040   39.7000   23.5080 C.3    85  PHE85       0.0560
     62  CG        56.5460   41.0050   23.1850 C.ar   85  PHE85      -0.0200
     63  CD1       57.8620   41.0510   22.7360 C.ar   85  PHE85      -0.0042
     64  CD2       55.8650   42.1950   23.3890 C.ar   85  PHE85      -0.0042
     65  CE1       58.4990   42.2540   22.4970 C.ar   85  PHE85      -0.0003
     66  CE2       56.4960   43.4200   23.1520 C.ar   85  PHE85      -0.0003
     67  CZ        57.8220   43.4430   22.7040 C.ar   85  PHE85      -0.0000
     68  N         43.5720   42.7770   37.8000 N.3   115  GLN115     -0.1231
     69  CA        43.4040   41.5180   37.1070 C.3   115  GLN115      0.1698
     70  C         44.2050   41.4280   35.8100 C.2   115  GLN115      0.2592
     71  O         44.9490   40.4580   35.6050 O.2   115  GLN115     -0.2718
     72  CB        41.9320   41.2740   36.8170 C.3   115  GLN115      0.0381
     73  CG        41.1080   41.1160   38.0500 C.3   115  GLN115      0.0905
     74  CD        39.6670   40.9090   37.7140 C.2   115  GLN115      0.2608
     75  OE1       39.3040   39.9020   37.1000 O.2   115  GLN115     -0.2717
     76  NE2       38.8260   41.8550   38.0980 N.am  115  GLN115     -0.0878
     77  N         44.0690   42.4360   34.9500 N.am  116  VAL116     -0.1980
     78  CA        44.7670   42.4220   33.6760 C.3   116  VAL116      0.1595
     79  C         46.2810   42.3350   33.8830 C.2   116  VAL116      0.2287
     80  O         46.9740   41.6010   33.1840 O.2   116  VAL116     -0.2864
     81  CB        44.3630   43.6540   32.8240 C.3   116  VAL116      0.0276
     82  CG1       45.1540   43.6960   31.5300 C.3   116  VAL116      0.0022
     83  CG2       42.8790   43.5670   32.4900 C.3   116  VAL116      0.0022
     84  N         47.4120   38.9580   35.2440 N.3   119  HIS119     -0.1226
     85  CA        47.3430   38.0630   34.1190 C.3   119  HIS119      0.1752
     86  C         48.5990   38.2170   33.2240 C.2   119  HIS119      0.2595
     87  O         49.2610   37.2400   32.8670 O.2   119  HIS119     -0.2718
     88  CB        46.1080   38.4140   33.3220 C.3   119  HIS119      0.0759
     89  CG        45.8550   37.4950   32.1830 C.ar  119  HIS119      0.0818
     90  ND1       45.2770   36.2550   32.3480 N.ar  119  HIS119     -0.2268
     91  CD2       46.1490   37.6060   30.8710 C.ar  119  HIS119      0.1154
     92  CE1       45.2250   35.6400   31.1850 C.ar  119  HIS119      0.1986
     93  NE2       45.7480   36.4410   30.2730 N.ar  119  HIS119     -0.2212
     94  N         48.9260   39.4460   32.8480 N.am  120  GLU120     -0.1979
     95  CA        50.0910   39.6620   32.0030 C.3   120  GLU120      0.1602
     96  C         51.3790   39.2480   32.6910 C.2   120  GLU120      0.2287
     97  O         52.2900   38.7670   32.0410 O.2   120  GLU120     -0.2864
     98  CB        50.1700   41.1280   31.5520 C.3   120  GLU120      0.0415
     99  CG        49.0480   41.5060   30.6100 C.3   120  GLU120      0.1163
    100  CD        49.0430   40.6710   29.3440 C.2   120  GLU120      0.3649
    101  OE1       48.0120   40.6140   28.6630 O.co2 120  GLU120     -0.2457
    102  OE2       50.0720   40.0660   29.0140 O.co2 120  GLU120     -0.2457
    103  N         51.9790   35.7580   32.3320 N.3   123  HIS123     -0.1241
    104  CA        52.6050   35.5090   31.0460 C.3   123  HIS123      0.1621
    105  C         54.0970   35.7780   31.0820 C.2   123  HIS123      0.2264
    106  O         54.9030   34.8690   30.8760 O.2   123  HIS123     -0.2867
    107  CB        51.9990   36.3960   29.9640 C.3   123  HIS123      0.0745
    108  CG        50.7140   35.8820   29.4160 C.ar  123  HIS123      0.0817
    109  ND1       50.5900   34.6090   28.9040 N.ar  123  HIS123     -0.2268
    110  CD2       49.5100   36.4720   29.2700 C.ar  123  HIS123      0.1154
    111  CE1       49.3540   34.4390   28.4590 C.ar  123  HIS123      0.1986
    112  NE2       48.6820   35.5550   28.6700 N.ar  123  HIS123     -0.2212
    113  N         47.6310   30.1390   29.1050 N.3   129  HIS129     -0.1241
    114  CA        46.2560   30.0090   29.5580 C.3   129  HIS129      0.1621
    115  C         45.8630   28.6500   30.0980 C.2   129  HIS129      0.2264
    116  O         46.2790   27.6210   29.5750 O.2   129  HIS129     -0.2867
    117  CB        45.2980   30.3320   28.4250 C.3   129  HIS129      0.0745
    118  CG        45.4860   31.6910   27.8520 C.ar  129  HIS129      0.0817
    119  ND1       45.4120   31.9390   26.5010 N.ar  129  HIS129     -0.2268
    120  CD2       45.7190   32.8840   28.4440 C.ar  129  HIS129      0.1154
    121  CE1       45.5940   33.2280   26.2830 C.ar  129  HIS129      0.1986
    122  NE2       45.7810   33.8200   27.4450 N.ar  129  HIS129     -0.2212
    123  N         39.9790   31.2970   36.6420 N.3   135  ALA135     -0.1231
    124  CA        41.4340   31.3720   36.7260 C.3   135  ALA135      0.1694
    125  C         42.0060   32.7350   36.3580 C.2   135  ALA135      0.2591
    126  O         41.4630   33.4540   35.5110 O.2   135  ALA135     -0.2718
    127  CB        42.0610   30.3130   35.8380 C.3   135  ALA135      0.0304
    128  N         43.1110   33.0830   37.0150 N.am  136  LEU136     -0.1980
    129  CA        43.8180   34.3280   36.7440 C.3   136  LEU136      0.1596
    130  C         44.2750   34.2810   35.2840 C.2   136  LEU136      0.2287
    131  O         44.2940   35.3010   34.5930 O.2   136  LEU136     -0.2864
    132  CB        45.0450   34.4540   37.6530 C.3   136  LEU136      0.0297
    133  CG        45.0580   35.5140   38.7630 C.3   136  LEU136      0.0022
    134  CD1       43.6520   35.7620   39.3330 C.3   136  LEU136      0.0001
    135  CD2       46.0280   35.0640   39.8460 C.3   136  LEU136      0.0001
    136  N         42.8150   32.8780   32.6070 N.3   138  SER138     -0.1203
    137  CA        41.8200   32.6220   31.5700 C.3   138  SER138      0.2005
    138  C         42.1740   33.5580   30.4040 C.2   138  SER138      0.2461
    139  O         42.8930   34.5270   30.5910 O.2   138  SER138     -0.2732
    140  CB        40.4050   32.9560   32.0630 C.3   138  SER138      0.2103
    141  OG        39.4670   32.9660   30.9790 O.3   138  SER138     -0.2182
    142  N         41.6830   33.2680   29.1900 N.am  139  PRO139     -0.2717
    143  CA        41.9590   34.1030   28.0130 C.3   139  PRO139      0.1535
    144  C         41.1090   35.3690   28.0560 C.2   139  PRO139      0.2599
    145  O         41.5090   36.4220   27.5730 O.2   139  PRO139     -0.2715
    146  CB        41.5510   33.2150   26.8320 C.3   139  PRO139      0.0310
    147  CG        41.4990   31.8490   27.3860 C.3   139  PRO139      0.0237
    148  CD        41.0100   32.0230   28.7990 C.3   139  PRO139      0.0939
    149  N         39.9230   35.2470   28.6420 N.am  140  PHE140     -0.1960
    150  CA        38.9810   36.3580   28.7210 C.3   140  PHE140      0.1771
    151  C         38.8890   36.9930   30.0880 C.2   140  PHE140      0.2620
    152  O         38.9900   36.3210   31.1100 O.2   140  PHE140     -0.2715
    153  CB        37.6060   35.8800   28.2700 C.3   140  PHE140      0.0574
    154  CG        37.6670   34.9900   27.1000 C.ar  140  PHE140     -0.0200
    155  CD1       38.0270   33.6530   27.2540 C.ar  140  PHE140     -0.0042
    156  CD2       37.4970   35.5010   25.8200 C.ar  140  PHE140     -0.0042
    157  CE1       38.2280   32.8320   26.1430 C.ar  140  PHE140     -0.0003
    158  CE2       37.6950   34.6910   24.6960 C.ar  140  PHE140     -0.0003
    159  CZ        38.0650   33.3530   24.8650 C.ar  140  PHE140     -0.0000
    160  N         38.6950   38.3060   30.0810 N.am  141  TYR141     -0.1960
    161  CA        38.5880   39.0910   31.2970 C.3   141  TYR141      0.1771
    162  C         37.1610   39.3010   31.7500 C.2   141  TYR141      0.2620
    163  O         36.3160   39.7000   30.9620 O.2   141  TYR141     -0.2715
    164  CB        39.2140   40.4630   31.0790 C.3   141  TYR141      0.0574
    165  CG        38.6650   41.5140   32.0070 C.ar  141  TYR141     -0.0198
    166  CD1       37.7860   42.4860   31.5460 C.ar  141  TYR141     -0.0009
    167  CD2       38.9970   41.5200   33.3600 C.ar  141  TYR141     -0.0009
    168  CE1       37.2520   43.4460   32.4190 C.ar  141  TYR141      0.0417
    169  CE2       38.4710   42.4670   34.2370 C.ar  141  TYR141      0.0417
    170  CZ        37.6070   43.4270   33.7610 C.ar  141  TYR141      0.1957
    171  OH        37.1340   44.3910   34.6170 O.3   141  TYR141     -0.2866
    172  N         36.8970   39.0210   33.0160 N.am  142  THR142     -0.1951
    173  CA        35.5850   39.2820   33.6100 C.3   142  THR142      0.1897
    174  C         35.9450   39.7550   35.0160 C.2   142  THR142      0.2313
    175  O         36.7990   39.1590   35.6690 O.2   142  THR142     -0.2863
    176  CB        34.6530   38.0150   33.6930 C.3   142  THR142      0.1794
    177  OG1       35.3530   36.9400   34.3290 O.3   142  THR142     -0.2208
    178  CG2       34.1660   37.5830   32.2960 C.3   142  THR142      0.0378
@<TRIPOS>BOND
     1     1     2    1
     2     2     3    1
     3     2     5    1
     4     3     4    2
     5    13    10    1
     6    13    14    1
     7     8     6    1
     8    10    11    1
     9    10     9    1
    10    12    11    2
    11     6     5    1
    12     6     7    1
    13    14    16   ar
    14    14    15   ar
    15    26    28    1
    16    26    25    1
    17    18    17    1
    18    18    19    1
    19    50    48   ar
    20    50    51   ar
    21    25    27    1
    22    25    22    1
    23    65    67   ar
    24    65    63   ar
    25    21    19   am
    26    21    22    1
    27    67    66   ar
    28    48    47   ar
    29    63    62   ar
    30    66    64   ar
    31    19    20    2
    32    51    49   ar
    33    62    64   ar
    34    62    61    1
    35    22    23    1
    36    61    58    1
    37    47    49   ar
    38    47    46    1
    39    24    23    2
    40    23    29   am
    41    46    43    1
    42   158   159   ar
    43   158   156   ar
    44   159   157   ar
    45    58    59    1
    46    58    57    1
    47    59    60    2
    48    29    30    1
    49    55    54    2
    50   156   154   ar
    51    57    54   am
    52    40    39    2
    53   157   155   ar
    54    43    42    1
    55    43    44    1
    56    54    53    1
    57   121   119   ar
    58   121   122   ar
    59    39    42   am
    60    39    38    1
    61   119   118   ar
    62    52    44   am
    63    52    53    1
    64    44    45    2
    65    37    38    1
    66    37    31   am
    67    30    31    1
    68    30    33    1
    69   146   147    1
    70   146   143    1
    71    38    41    1
    72   154   155   ar
    73   154   153    1
    74    31    32    2
    75    53    56    1
    76    36    34    1
    77   147   148    1
    78   122   120   ar
    79   145   144    2
    80    34    33    1
    81    34    35    1
    82   118   117    1
    83   118   120   ar
    84   143   144    1
    85   143   142    1
    86   144   149   am
    87   153   150    1
    88   117   114    1
    89   111   112   ar
    90   111   109   ar
    91   149   150    1
    92   101   100   ar
    93   112   110   ar
    94   150   151    1
    95   148   142    1
    96   109   108   ar
    97   102   100   ar
    98   113   114    1
    99   142   138   am
   100   110   108   ar
   101   100    99    1
   102   108   107    1
   103   114   115    1
   104   116   115    2
   105   107   104    1
   106   160   151   am
   107   160   161    1
   108   151   152    2
   109    93    91   ar
   110    93    92   ar
   111   138   139    2
   112   138   137    1
   113    99    98    1
   114    91    89   ar
   115   106   105    2
   116   163   162    2
   117   141   140    1
   118   104   105    1
   119   104   103    1
   120   164   161    1
   121   164   165    1
   122    92    90   ar
   123   161   162    1
   124    82    81    1
   125   166   165   ar
   126   166   168   ar
   127    98    95    1
   128   137   140    1
   129   137   136    1
   130   162   172   am
   131    95    96    1
   132    95    94    1
   133   165   167   ar
   134    97    96    2
   135    89    90   ar
   136    89    88    1
   137   178   176    1
   138   168   170   ar
   139    83    81    1
   140    81    78    1
   141    94    86   am
   142    87    86    2
   143   172   173    1
   144    80    79    2
   145    86    85    1
   146    88    85    1
   147   167   169   ar
   148   173   176    1
   149   173   174    1
   150    78    79    1
   151    78    77    1
   152   176   177    1
   153   170   169   ar
   154   170   171    1
   155    85    84    1
   156   131   130    2
   157    77    70   am
   158   174   175    2
   159   130   129    1
   160   126   125    2
   161    71    70    2
   162    70    69    1
   163   127   124    1
   164   125   124    1
   165   125   128   am
   166   123   124    1
   167   129   128    1
   168   129   132    1
   169    72    69    1
   170    72    73    1
   171    75    74    2
   172    69    68    1
   173   132   133    1
   174    74    73    1
   175    74    76   am
   176   133   134    1
   177   133   135    1
