@<TRIPOS>MOLECULE
tmp/1hv5E01.pdb
 126 120 0 0 0
SMALL
GASTEIGER

@<TRIPOS>ATOM
      1  N         65.8970   26.0140   36.2830 N.3     5  SER5       -0.1202
      2  CA        64.9520   25.8420   35.1850 C.3     5  SER5        0.2020
      3  C         65.6430   26.0090   33.8430 C.2     5  SER5        0.2619
      4  O         66.5250   26.8590   33.6870 O.2     5  SER5       -0.2717
      5  CB        63.8130   26.8500   35.3100 C.3     5  SER5        0.2103
      6  OG        64.3190   28.1730   35.2310 O.3     5  SER5       -0.2182
      7  N         65.2300   25.2080   32.8670 N.am    6  GLY6       -0.1956
      8  CA        65.8470   25.2810   31.5550 C.3     6  GLY6        0.1869
      9  C         67.2090   24.6100   31.6260 C.2     6  GLY6        0.2309
     10  O         67.9650   24.5570   30.6590 O.2     6  GLY6       -0.2863
     11  N         68.8600   30.2660   37.3980 N.3    10  GLU10      -0.1231
     12  CA        68.4870   31.6660   37.2140 C.3    10  GLU10       0.1699
     13  C         68.2280   32.1780   38.6250 C.2    10  GLU10       0.2592
     14  O         68.0030   31.3840   39.5440 O.2    10  GLU10      -0.2718
     15  CB        67.2010   31.7950   36.3780 C.3    10  GLU10       0.0402
     16  CG        66.9900   30.7300   35.2730 C.3    10  GLU10       0.1161
     17  CD        67.7620   30.9860   33.9640 C.2    10  GLU10       0.3649
     18  OE1       67.5970   30.1690   33.0100 O.co2  10  GLU10      -0.2457
     19  OE2       68.5230   31.9880   33.8810 O.co2  10  GLU10      -0.2457
     20  N         68.2800   33.4940   38.8010 N.am   11  LYS11      -0.1980
     21  CA        68.0370   34.0910   40.1090 C.3    11  LYS11       0.1596
     22  C         66.5380   34.2800   40.2390 C.2    11  LYS11       0.2287
     23  O         65.8230   34.2800   39.2400 O.2    11  LYS11      -0.2864
     24  CB        68.7630   35.4440   40.2470 C.3    11  LYS11       0.0298
     25  CG        68.8730   36.2880   38.9520 C.3    11  LYS11       0.0038
     26  CD        67.5900   36.2930   38.1020 C.3    11  LYS11       0.0206
     27  CE        67.6880   37.2380   36.9080 C.3    11  LYS11       0.1093
     28  NZ        67.5130   38.6730   37.2620 N.3    11  LYS11      -0.1314
     29  N         64.0660   39.6680   40.8600 N.3    14  LEU14      -0.1245
     30  CA        63.9710   40.4280   39.6260 C.3    14  LEU14       0.1561
     31  C         63.6920   41.8960   39.8740 C.2    14  LEU14       0.2260
     32  O         63.3770   42.3260   40.9920 O.2    14  LEU14      -0.2867
     33  CB        62.8640   39.8640   38.7350 C.3    14  LEU14       0.0270
     34  CG        62.7770   38.3490   38.5440 C.3    14  LEU14       0.0019
     35  CD1       61.8070   38.0520   37.4120 C.3    14  LEU14       0.0001
     36  CD2       64.1360   37.7750   38.2350 C.3    14  LEU14       0.0001
     37  N         64.2710   43.6110   34.5180 N.3    58  ASP58      -0.1225
     38  CA        63.9120   42.2540   34.0610 C.3    58  ASP58       0.1805
     39  C         62.5240   42.1850   33.4150 C.2    58  ASP58       0.2597
     40  O         62.2320   41.2880   32.6300 O.2    58  ASP58      -0.2718
     41  CB        63.9690   41.2800   35.2320 C.3    58  ASP58       0.1424
     42  CG        65.3470   41.1660   35.8000 C.2    58  ASP58       0.3668
     43  OD1       65.4790   41.2430   37.0450 O.co2  58  ASP58      -0.2456
     44  OD2       66.2990   41.0040   34.9940 O.co2  58  ASP58      -0.2456
     45  N         61.6690   43.1260   33.7930 N.am   59  ILE59      -0.1980
     46  CA        60.3270   43.2340   33.2540 C.3    59  ILE59       0.1595
     47  C         60.0700   44.7230   33.0140 C.2    59  ILE59       0.2287
     48  O         60.0510   45.5270   33.9480 O.2    59  ILE59      -0.2864
     49  CB        59.2500   42.6800   34.2310 C.3    59  ILE59       0.0276
     50  CG1       59.4700   41.1820   34.4520 C.3    59  ILE59       0.0022
     51  CG2       57.8380   42.9450   33.6600 C.3    59  ILE59       0.0022
     52  CD1       58.6600   40.6080   35.6220 C.3    59  ILE59       0.0001
     53  N         58.4720   38.4500   24.6510 N.3    86  PHE86      -0.1241
     54  CA        59.9000   38.4600   24.8850 C.3    86  PHE86       0.1605
     55  C         60.6500   38.9870   23.6700 C.2    86  PHE86       0.2264
     56  O         60.7220   38.3330   22.6310 O.2    86  PHE86      -0.2867
     57  CB        60.3500   37.0550   25.2760 C.3    86  PHE86       0.0534
     58  CG        59.5490   36.4730   26.4090 C.ar   86  PHE86      -0.0203
     59  CD1       58.6030   35.4790   26.1730 C.ar   86  PHE86      -0.0042
     60  CD2       59.6640   36.9910   27.7040 C.ar   86  PHE86      -0.0042
     61  CE1       57.7770   35.0130   27.2120 C.ar   86  PHE86      -0.0003
     62  CE2       58.8410   36.5310   28.7450 C.ar   86  PHE86      -0.0003
     63  CZ        57.8980   35.5470   28.4970 C.ar   86  PHE86      -0.0000
     64  N         67.3400   41.0480   26.7990 N.3    91  ARG91      -0.1231
     65  CA        66.9490   40.0420   27.7630 C.3    91  ARG91       0.1694
     66  C         66.1360   40.7120   28.8560 C.2    91  ARG91       0.2592
     67  O         66.6660   41.2190   29.8460 O.2    91  ARG91      -0.2718
     68  CB        68.1600   39.2800   28.3160 C.3    91  ARG91       0.0321
     69  CG        69.3500   40.1210   28.6220 C.3    91  ARG91       0.0489
     70  CD        70.6470   39.3200   28.4510 C.3    91  ARG91       0.2205
     71  NE        71.8130   40.1900   28.6020 N.pl3  91  ARG91      -0.0865
     72  CZ        72.2400   40.6860   29.7650 C.cat  91  ARG91       0.5346
     73  NH1       71.6070   40.3960   30.9020 N.pl3  91  ARG91       0.1354
     74  NH2       73.2930   41.4940   29.7890 N.pl3  91  ARG91       0.1354
     75  N         64.8270   40.7130   28.6170 N.am   92  GLU92      -0.1966
     76  CA        63.8200   41.2990   29.4860 C.3    92  GLU92       0.1733
     77  C         62.4780   40.8260   28.9820 C.2    92  GLU92       0.2616
     78  O         62.3700   40.3670   27.8580 O.2    92  GLU92      -0.2715
     79  CB        63.8310   42.8150   29.3780 C.3    92  GLU92       0.0429
     80  CG        63.4830   43.2820   27.9900 C.3    92  GLU92       0.1163
     81  CD        63.4730   44.7800   27.8790 C.2    92  GLU92       0.3649
     82  OE1       64.3760   45.4080   28.4760 O.co2  92  GLU92      -0.2457
     83  OE2       62.5750   45.3270   27.1890 O.co2  92  GLU92      -0.2457
     84  N         61.4600   40.9350   29.8220 N.am   93  GLY93      -0.1955
     85  CA        60.1190   40.5530   29.4140 C.3    93  GLY93       0.1869
     86  C         59.3490   41.8540   29.2600 C.2    93  GLY93       0.2309
     87  O         59.3960   42.6950   30.1570 O.2    93  GLY93      -0.2863
     88  N         54.4600   37.0340   31.3360 N.3   124  VAL124     -0.1231
     89  CA        55.8560   37.4300   31.3520 C.3   124  VAL124      0.1692
     90  C         56.6770   36.5140   32.2270 C.2   124  VAL124      0.2592
     91  O         57.8880   36.4410   32.0710 O.2   124  VAL124     -0.2718
     92  CB        56.0420   38.9170   31.8280 C.3   124  VAL124      0.0266
     93  CG1       55.9780   39.0290   33.3550 C.3   124  VAL124      0.0020
     94  CG2       57.3690   39.4770   31.2890 C.3   124  VAL124      0.0020
     95  N         56.0200   35.8030   33.1380 N.am  125  LEU125     -0.1966
     96  CA        56.7400   34.9090   34.0380 C.3   125  LEU125      0.1728
     97  C         56.8110   33.4880   33.5300 C.2   125  LEU125      0.2616
     98  O         57.4390   32.6290   34.1610 O.2   125  LEU125     -0.2715
     99  CB        56.1390   34.9410   35.4460 C.3   125  LEU125      0.0311
    100  CG        56.5340   36.2060   36.2280 C.3   125  LEU125      0.0022
    101  CD1       55.9110   36.1820   37.6150 C.3   125  LEU125      0.0001
    102  CD2       58.0520   36.2860   36.3270 C.3   125  LEU125      0.0001
    103  N         56.1730   33.2310   32.3940 N.am  126  GLY126     -0.1955
    104  CA        56.2220   31.8900   31.8280 C.3   126  GLY126      0.1869
    105  C         54.9420   31.0870   31.6580 C.2   126  GLY126      0.2309
    106  O         54.9600   30.0410   31.0240 O.2   126  GLY126     -0.2863
    107  N         57.5030   26.3200   37.6320 N.3   160  LEU160     -0.1231
    108  CA        58.5960   27.1110   37.1030 C.3   160  LEU160      0.1693
    109  C         59.5260   27.7250   38.1410 C.2   160  LEU160      0.2592
    110  O         60.7160   27.8470   37.8780 O.2   160  LEU160     -0.2718
    111  CB        58.0460   28.2260   36.2220 C.3   160  LEU160      0.0284
    112  CG        57.2120   27.8470   34.9990 C.3   160  LEU160      0.0019
    113  CD1       56.5600   29.0910   34.4290 C.3   160  LEU160      0.0001
    114  CD2       58.0840   27.1990   33.9580 C.3   160  LEU160      0.0001
    115  N         59.0190   28.1200   39.3090 N.am  161  TYR161     -0.1976
    116  CA        59.8990   28.7540   40.2950 C.3   161  TYR161      0.1639
    117  C         59.9930   28.0830   41.6750 C.2   161  TYR161      0.2290
    118  O         60.7790   28.5310   42.5250 O.2   161  TYR161     -0.2864
    119  CB        59.5100   30.2410   40.4890 C.3   161  TYR161      0.0560
    120  CG        59.5570   31.1000   39.2300 C.ar  161  TYR161     -0.0198
    121  CD1       58.5400   31.0250   38.2740 C.ar  161  TYR161     -0.0009
    122  CD2       60.6590   31.9020   38.9490 C.ar  161  TYR161     -0.0009
    123  CE1       58.6260   31.7150   37.0590 C.ar  161  TYR161      0.0417
    124  CE2       60.7520   32.5970   37.7410 C.ar  161  TYR161      0.0417
    125  CZ        59.7320   32.4940   36.7950 C.ar  161  TYR161      0.1957
    126  OH        59.8300   33.1510   35.5890 O.3   161  TYR161     -0.2866
@<TRIPOS>BOND
     1    56    55    2
     2    55    54    1
     3    53    54    1
     4    54    57    1
     5    57    58    1
     6    59    58   ar
     7    59    61   ar
     8    58    60   ar
     9    64    65    1
    10    83    81   ar
    11    61    63   ar
    12    60    62   ar
    13    65    68    1
    14    65    66    1
    15    78    77    2
    16    81    80    1
    17    81    82   ar
    18    80    79    1
    19    68    69    1
    20    70    71    1
    21    70    69    1
    22    63    62   ar
    23    71    72    2
    24    75    66   am
    25    75    76    1
    26    66    67    2
    27    77    76    1
    28    77    84   am
    29    86    85    1
    30    86    87    2
    31    79    76    1
    32    85    84    1
    33    72    74    1
    34    72    73    1
    35    10     9    2
    36   106   105    2
    37    94    92    1
    38    88    89    1
    39    89    92    1
    40    89    90    1
    41     8     9    1
    42     8     7    1
    43   105   104    1
    44   104   103    1
    45    92    93    1
    46    91    90    2
    47    90    95   am
    48   103    97   am
    49    40    39    2
    50     7     3   am
    51    18    17   ar
    52    47    46    1
    53    47    48    2
    54    95    96    1
    55    46    45    1
    56    46    49    1
    57    39    45   am
    58    39    38    1
    59    97    96    1
    60    97    98    2
    61    51    49    1
    62     4     3    2
    63     3     2    1
    64    19    17   ar
    65   114   112    1
    66    17    16    1
    67    96    99    1
    68    38    37    1
    69    38    41    1
    70    49    50    1
    71   113   112    1
    72    50    52    1
    73    44    42   ar
    74   112   111    1
    75     2     5    1
    76     2     1    1
    77     6     5    1
    78    41    42    1
    79    16    15    1
    80    99   100    1
    81   126   125    1
    82    42    43   ar
    83   111   108    1
    84   100   102    1
    85   100   101    1
    86    15    12    1
    87   125   123   ar
    88   125   124   ar
    89    27    28    1
    90    27    26    1
    91   123   121   ar
    92   108   107    1
    93   108   109    1
    94    12    11    1
    95    12    13    1
    96    35    34    1
    97   124   122   ar
    98   110   109    2
    99    26    25    1
   100   109   115   am
   101    36    34    1
   102   121   120   ar
   103    34    33    1
   104    13    20   am
   105    13    14    2
   106    33    30    1
   107    20    21    1
   108   122   120   ar
   109    25    24    1
   110   120   119    1
   111    23    22    2
   112   115   116    1
   113    30    31    1
   114    30    29    1
   115    31    32    2
   116    21    22    1
   117    21    24    1
   118   116   119    1
   119   116   117    1
   120   117   118    2
