@<TRIPOS>MOLECULE
tmp/1hv6A00.pdb
 187 181 0 0 0
SMALL
GASTEIGER

@<TRIPOS>ATOM
      1  N        -16.8320   17.2560    7.6970 N.3    77  TYR77      -0.1241
      2  CA       -15.4650   17.0060    8.1350 C.3    77  TYR77       0.1605
      3  C        -14.4250   18.0790    7.7930 C.2    77  TYR77       0.2264
      4  O        -13.7480   18.5990    8.6860 O.2    77  TYR77      -0.2867
      5  CB       -14.9950   15.6510    7.6110 C.3    77  TYR77       0.0534
      6  CG       -13.5920   15.2930    8.0450 C.ar   77  TYR77      -0.0201
      7  CD1      -12.5120   15.4500    7.1750 C.ar   77  TYR77      -0.0009
      8  CD2      -13.3400   14.8290    9.3360 C.ar   77  TYR77      -0.0009
      9  CE1      -11.2120   15.1580    7.5770 C.ar   77  TYR77       0.0417
     10  CE2      -12.0450   14.5360    9.7530 C.ar   77  TYR77       0.0417
     11  CZ       -10.9840   14.7040    8.8690 C.ar   77  TYR77       0.1957
     12  OH        -9.6960   14.4470    9.2830 O.3    77  TYR77      -0.2866
     13  N         -6.6700   23.0340   12.4440 N.3    85  ARG85      -0.1245
     14  CA        -5.3710   23.1300   11.8120 C.3    85  ARG85       0.1563
     15  C         -4.9510   24.5940   11.5950 C.2    85  ARG85       0.2260
     16  O         -3.7540   24.8970   11.5860 O.2    85  ARG85      -0.2867
     17  CB        -5.3850   22.3200   10.5130 C.3    85  ARG85       0.0307
     18  CG        -5.3840   20.8050   10.8100 C.3    85  ARG85       0.0489
     19  CD        -5.6190   19.9240    9.5960 C.3    85  ARG85       0.2205
     20  NE        -5.5350   18.5100    9.9610 N.pl3  85  ARG85      -0.0865
     21  CZ        -5.8110   17.4990    9.1420 C.cat  85  ARG85       0.5346
     22  NH1       -6.1960   17.7340    7.8940 N.pl3  85  ARG85       0.1354
     23  NH2       -5.7060   16.2470    9.5730 N.pl3  85  ARG85       0.1354
     24  N        -12.8670   11.0530   18.2210 N.3   131  GLN131     -0.1245
     25  CA       -11.7020   11.6650   17.5960 C.3   131  GLN131      0.1566
     26  C        -11.3240   12.9660   18.3010 C.2   131  GLN131      0.2260
     27  O        -10.1650   13.3900   18.2670 O.2   131  GLN131     -0.2867
     28  CB       -11.9910   11.9380   16.1160 C.3   131  GLN131      0.0367
     29  CG       -10.8520   12.6400   15.3790 C.3   131  GLN131      0.0905
     30  CD        -9.6000   11.7770   15.2660 C.2   131  GLN131      0.2608
     31  OE1       -8.4950   12.2900   15.0670 O.2   131  GLN131     -0.2717
     32  NE2       -9.7700   10.4610   15.3810 N.am  131  GLN131     -0.0878
     33  N         -7.7320   15.1330   18.9170 N.3   135  GLN135     -0.1245
     34  CA        -7.5480   16.4910   18.4220 C.3   135  GLN135      0.1566
     35  C         -7.0630   17.3950   19.5450 C.2   135  GLN135      0.2260
     36  O         -6.2230   18.2510   19.3210 O.2   135  GLN135     -0.2867
     37  CB        -8.8520   17.0410   17.8230 C.3   135  GLN135      0.0367
     38  CG        -8.6900   18.3960   17.1340 C.3   135  GLN135      0.0905
     39  CD        -7.6240   18.3920   16.0440 C.2   135  GLN135      0.2608
     40  OE1       -6.5920   19.0690   16.1570 O.2   135  GLN135     -0.2717
     41  NE2       -7.8650   17.6290   14.9860 N.am  135  GLN135     -0.0878
     42  N         -3.2180   17.3340   20.2820 N.3   138  TRP138     -0.1241
     43  CA        -2.4260   18.0550   19.2870 C.3   138  TRP138      0.1605
     44  C         -2.5550   19.5680   19.3990 C.2   138  TRP138      0.2264
     45  O         -1.5530   20.2850   19.3570 O.2   138  TRP138     -0.2867
     46  CB        -2.8160   17.6120   17.8650 C.3   138  TRP138      0.0550
     47  CG        -2.4440   16.1820   17.5390 C.ar  138  TRP138      0.0003
     48  CD1       -1.2810   15.5440   17.8670 C.ar  138  TRP138      0.0946
     49  CD2       -3.2150   15.2360   16.7730 C.ar  138  TRP138      0.0152
     50  NE1       -1.2770   14.2670   17.3540 N.ar  138  TRP138     -0.2442
     51  CE2       -2.4480   14.0510   16.6780 C.ar  138  TRP138      0.0810
     52  CE3       -4.4780   15.2770   16.1590 C.ar  138  TRP138      0.0012
     53  CZ2       -2.9010   12.9110   15.9910 C.ar  138  TRP138      0.0191
     54  CZ3       -4.9300   14.1490   15.4780 C.ar  138  TRP138      0.0001
     55  CH2       -4.1390   12.9770   15.4010 C.ar  138  TRP138      0.0015
     56  N          0.0020    7.6170   20.3570 N.3   189  HIS189     -0.1241
     57  CA        -0.9350    8.5400   21.0120 C.3   189  HIS189      0.1621
     58  C         -0.5280    8.7620   22.4760 C.2   189  HIS189      0.2264
     59  O         -0.6510    9.8650   23.0090 O.2   189  HIS189     -0.2867
     60  CB        -2.3680    8.0070   20.9470 C.3   189  HIS189      0.0745
     61  CG        -3.0930    8.3950   19.6980 C.ar  189  HIS189      0.0817
     62  ND1       -3.2570    9.7090   19.3140 N.ar  189  HIS189     -0.2268
     63  CD2       -3.6700    7.6450   18.7290 C.ar  189  HIS189      0.1154
     64  CE1       -3.8980    9.7520   18.1590 C.ar  189  HIS189      0.1986
     65  NE2       -4.1610    8.5140   17.7830 N.ar  189  HIS189     -0.2212
     66  N          0.7250   -1.6240   11.8890 N.3   236  ARG236     -0.1245
     67  CA        -0.1170   -0.7610   11.0660 C.3   236  ARG236      0.1563
     68  C         -0.0590   -1.0450    9.5640 C.2   236  ARG236      0.2260
     69  O         -0.3890   -0.1860    8.7510 O.2   236  ARG236     -0.2867
     70  CB         0.2140    0.7110   11.3390 C.3   236  ARG236      0.0307
     71  CG         0.0680    1.1530   12.8010 C.3   236  ARG236      0.0489
     72  CD        -1.3270    0.9060   13.3450 C.3   236  ARG236      0.2205
     73  NE        -2.3140    1.8760   12.8750 N.pl3 236  ARG236     -0.0865
     74  CZ        -2.5140    3.0770   13.4140 C.cat 236  ARG236      0.5346
     75  NH1       -1.7980    3.4800   14.4550 N.pl3 236  ARG236      0.1354
     76  NH2       -3.4450    3.8760   12.9160 N.pl3 236  ARG236      0.1354
     77  N          1.1530    1.2810    6.6930 N.3   239  GLN239     -0.1245
     78  CA         1.4610    2.5440    7.3630 C.3   239  GLN239      0.1566
     79  C          2.4480    2.3520    8.5260 C.2   239  GLN239      0.2260
     80  O          2.6680    3.2680    9.3220 O.2   239  GLN239     -0.2867
     81  CB         0.1700    3.1740    7.8940 C.3   239  GLN239      0.0367
     82  CG        -0.7930    3.6370    6.8160 C.3   239  GLN239      0.0905
     83  CD        -0.4780    5.0320    6.3140 C.2   239  GLN239      0.2608
     84  OE1        0.5990    5.2910    5.7760 O.2   239  GLN239     -0.2717
     85  NE2       -1.4240    5.9480    6.4980 N.am  239  GLN239     -0.0878
     86  N          5.5020    4.7270    8.4160 N.3   242  HIS242     -0.1226
     87  CA         4.9770    6.0720    8.6470 C.3   242  HIS242      0.1752
     88  C          4.7850    6.3160   10.1440 C.2   242  HIS242      0.2596
     89  O          5.1810    7.3600   10.6730 O.2   242  HIS242     -0.2718
     90  CB         3.6250    6.2470    7.9430 C.3   242  HIS242      0.0759
     91  CG         2.9440    7.5430    8.2580 C.ar  242  HIS242      0.0818
     92  ND1        3.1760    8.7000    7.5450 N.ar  242  HIS242     -0.2268
     93  CD2        2.0720    7.8770    9.2400 C.ar  242  HIS242      0.1154
     94  CE1        2.4770    9.6900    8.0730 C.ar  242  HIS242      0.1986
     95  NE2        1.7980    9.2170    9.1040 N.ar  242  HIS242     -0.2212
     96  N          4.1580    5.3590   10.8230 N.am  243  TYR243     -0.1976
     97  CA         3.9240    5.4940   12.2580 C.3   243  TYR243      0.1639
     98  C          5.1740    5.3230   13.1130 C.2   243  TYR243      0.2290
     99  O          5.2380    5.8430   14.2300 O.2   243  TYR243     -0.2864
    100  CB         2.8190    4.5430   12.7070 C.3   243  TYR243      0.0560
    101  CG         1.4540    5.0990   12.3870 C.ar  243  TYR243     -0.0198
    102  CD1        0.6820    4.5690   11.3520 C.ar  243  TYR243     -0.0009
    103  CD2        0.9710    6.2150   13.0630 C.ar  243  TYR243     -0.0009
    104  CE1       -0.5420    5.1470   10.9970 C.ar  243  TYR243      0.0417
    105  CE2       -0.2460    6.8010   12.7200 C.ar  243  TYR243      0.0417
    106  CZ        -0.9990    6.2640   11.6860 C.ar  243  TYR243      0.1957
    107  OH        -2.2040    6.8480   11.3430 O.3   243  TYR243     -0.2866
    108  N          6.4230    8.7190   12.8840 N.3   246  TYR246     -0.1241
    109  CA         5.4810    9.5970   13.5790 C.3   246  TYR246      0.1605
    110  C          5.6880    9.6110   15.0910 C.2   246  TYR246      0.2264
    111  O          5.6150   10.6650   15.7320 O.2   246  TYR246     -0.2867
    112  CB         4.0490    9.1600   13.2450 C.3   246  TYR246      0.0534
    113  CG         2.9860   10.2020   13.4810 C.ar  246  TYR246     -0.0201
    114  CD1        3.0630   11.4580   12.8780 C.ar  246  TYR246     -0.0009
    115  CD2        1.8710    9.9140   14.2700 C.ar  246  TYR246     -0.0009
    116  CE1        2.0490   12.4020   13.0530 C.ar  246  TYR246      0.0417
    117  CE2        0.8550   10.8450   14.4550 C.ar  246  TYR246      0.0417
    118  CZ         0.9490   12.0880   13.8470 C.ar  246  TYR246      0.1957
    119  OH        -0.0480   13.0170   14.0550 O.3   246  TYR246     -0.2866
    120  N          5.0340    8.7380    1.9810 N.3   303  ARG303     -0.1245
    121  CA         4.7160   10.1400    1.7160 C.3   303  ARG303      0.1563
    122  C          5.4240   11.0980    2.6800 C.2   303  ARG303      0.2260
    123  O          5.7990   12.2100    2.3010 O.2   303  ARG303     -0.2867
    124  CB         3.1980   10.3510    1.7980 C.3   303  ARG303      0.0307
    125  CG         2.5920   10.1100    3.1850 C.3   303  ARG303      0.0489
    126  CD         1.0790   10.2820    3.1560 C.3   303  ARG303      0.2205
    127  NE         0.4910   10.4040    4.4890 N.pl3 303  ARG303     -0.0865
    128  CZ         0.3170    9.3970    5.3450 C.cat 303  ARG303      0.5346
    129  NH1        0.6850    8.1620    5.0220 N.pl3 303  ARG303      0.1354
    130  NH2       -0.2350    9.6270    6.5320 N.pl3 303  ARG303      0.1354
    131  N         11.0940   18.6490    3.1750 N.3   308  GLY308     -0.1210
    132  CA        10.0660   19.6310    3.4520 C.3   308  GLY308      0.1956
    133  C          8.8500   19.1510    4.2200 C.2   308  GLY308      0.2612
    134  O          8.0390   19.9750    4.6380 O.2   308  GLY308     -0.2717
    135  N          8.6950   17.8400    4.4000 N.am  309  ARG309     -0.1965
    136  CA         7.5460   17.3190    5.1470 C.3   309  ARG309      0.1729
    137  C          7.6830   17.6280    6.6380 C.2   309  ARG309      0.2617
    138  O          8.7580   17.4550    7.2160 O.2   309  ARG309     -0.2715
    139  CB         7.4200   15.7990    4.9700 C.3   309  ARG309      0.0348
    140  CG         6.8350   15.3540    3.6350 C.3   309  ARG309      0.0492
    141  CD         5.3200   15.5960    3.5650 C.3   309  ARG309      0.2205
    142  NE         4.5880   14.9630    4.6660 N.pl3 309  ARG309     -0.0865
    143  CZ         3.3850   14.4000    4.5440 C.cat 309  ARG309      0.5346
    144  NH1        2.7770   14.3840    3.3640 N.pl3 309  ARG309      0.1354
    145  NH2        2.7800   13.8590    5.5980 N.pl3 309  ARG309      0.1354
    146  N          6.5910   18.0910    7.2500 N.am  310  GLY310     -0.1940
    147  CA         6.6080   18.4030    8.6740 C.3   310  GLY310      0.2014
    148  C          6.9490   17.1970    9.5340 C.2   310  GLY310      0.2638
    149  O          7.4380   17.3500   10.6530 O.2   310  GLY310     -0.2714
    150  N          6.6860   15.9990    9.0090 N.am  311  ASP311     -0.1971
    151  CA         6.9600   14.7350    9.7060 C.3   311  ASP311      0.1709
    152  C          8.4420   14.5510   10.0620 C.2   311  ASP311      0.2293
    153  O          8.7810   13.7150   10.9060 O.2   311  ASP311     -0.2864
    154  CB         6.5370   13.5400    8.8310 C.3   311  ASP311      0.1436
    155  CG         5.0610   13.5830    8.4280 C.2   311  ASP311      0.3671
    156  OD1        4.2690   12.7500    8.9340 O.co2 311  ASP311     -0.2456
    157  OD2        4.6970   14.4480    7.5970 O.co2 311  ASP311     -0.2456
    158  N          8.6540   22.7020    8.8030 N.3   336  PHE336     -0.1227
    159  CA         7.7700   23.4160    9.7000 C.3   336  PHE336      0.1736
    160  C          6.6430   22.4900   10.1360 C.2   336  PHE336      0.2595
    161  O          5.9400   21.9240    9.3040 O.2   336  PHE336     -0.2718
    162  CB         7.1990   24.6530    8.9830 C.3   336  PHE336      0.0547
    163  CG         6.1410   25.3970    9.7750 C.ar  336  PHE336     -0.0202
    164  CD1        4.7830   25.1850    9.5220 C.ar  336  PHE336     -0.0042
    165  CD2        6.5050   26.3270   10.7560 C.ar  336  PHE336     -0.0042
    166  CE1        3.8010   25.8920   10.2330 C.ar  336  PHE336     -0.0003
    167  CE2        5.5320   27.0380   11.4740 C.ar  336  PHE336     -0.0003
    168  CZ         4.1800   26.8210   11.2110 C.ar  336  PHE336     -0.0000
    169  N          6.4910   22.3220   11.4440 N.am  337  ASP337     -0.1974
    170  CA         5.4280   21.4780   11.9820 C.3   337  ASP337      0.1709
    171  C          4.8620   22.1100   13.2520 C.2   337  ASP337      0.2293
    172  O          5.5130   22.1060   14.3010 O.2   337  ASP337     -0.2864
    173  CB         5.9490   20.0750   12.3010 C.3   337  ASP337      0.1436
    174  CG         4.8900   19.2060   12.9660 C.2   337  ASP337      0.3671
    175  OD1        3.7270   19.2800   12.5330 O.co2 337  ASP337     -0.2456
    176  OD2        5.2080   18.4550   13.9130 O.co2 337  ASP337     -0.2456
    177  N          2.7180   21.1450   15.4500 N.3   339  ARG339     -0.1245
    178  CA         2.6320   20.1930   16.5590 C.3   339  ARG339      0.1563
    179  C          3.9270   19.8850   17.3060 C.2   339  ARG339      0.2260
    180  O          3.8870   19.3620   18.4260 O.2   339  ARG339     -0.2867
    181  CB         1.9630   18.9050   16.0670 C.3   339  ARG339      0.0307
    182  CG         0.5190   19.1550   15.6870 C.3   339  ARG339      0.0489
    183  CD        -0.0910   18.0580   14.8340 C.3   339  ARG339      0.2205
    184  NE        -1.4930   18.3840   14.5630 N.pl3 339  ARG339     -0.0865
    185  CZ        -2.3590   17.5740   13.9640 C.cat 339  ARG339      0.5346
    186  NH1       -1.9850   16.3670   13.5590 N.pl3 339  ARG339      0.1354
    187  NH2       -3.6040   17.9790   13.7660 N.pl3 339  ARG339      0.1354
@<TRIPOS>BOND
     1   121   124    1
     2   121   120    1
     3   121   122    1
     4   124   125    1
     5   123   122    2
     6   126   125    1
     7   126   127    1
     8   131   132    1
     9   144   143    1
    10   132   133    1
    11   141   140    1
    12   141   142    1
    13   140   139    1
    14   133   135   am
    15   133   134    2
    16   135   136    1
    17   127   128    2
    18   143   142    2
    19   143   145    1
    20   139   136    1
    21   129   128    1
    22   136   137    1
    23   128   130    1
    24    84    83    2
    25    83    85   am
    26    83    82    1
    27   137   138    2
    28   137   146   am
    29    77    78    1
    30    82    81    1
    31     7     9   ar
    32     7     6   ar
    33   146   147    1
    34    78    81    1
    35    78    79    1
    36    92    94   ar
    37    92    91   ar
    38     9    11   ar
    39   157   155   ar
    40     5     6    1
    41     5     2    1
    42     1     2    1
    43     3     2    1
    44     3     4    2
    45    22    21    1
    46    90    91    1
    47    90    87    1
    48     6     8   ar
    49    94    95   ar
    50    91    93   ar
    51    86    87    1
    52   155   154    1
    53   155   156   ar
    54    79    80    2
    55    87    88    1
    56   147   148    1
    57    69    68    2
    58   158   159    1
    59   154   151    1
    60    11    12    1
    61    11    10   ar
    62   162   159    1
    63   162   163    1
    64   150   148   am
    65   150   151    1
    66    95    93   ar
    67    21    23    1
    68    21    20    2
    69   161   160    2
    70     8    10   ar
    71   164   163   ar
    72   164   166   ar
    73   148   149    2
    74    68    67    1
    75    19    20    1
    76    19    18    1
    77   159   160    1
    78   151   152    1
    79   163   165   ar
    80   152   153    2
    81   160   169   am
    82    88    89    2
    83    88    96   am
    84   166   168   ar
    85    17    18    1
    86    17    14    1
    87   165   167   ar
    88    96    97    1
    89   104   102   ar
    90   104   106   ar
    91    67    70    1
    92    67    66    1
    93   168   167   ar
    94    70    71    1
    95   107   106    1
    96   102   101   ar
    97   169   170    1
    98    16    15    2
    99    15    14    1
   100   106   105   ar
   101    14    13    1
   102   170   173    1
   103   170   171    1
   104    97   100    1
   105    97    98    1
   106   173   174    1
   107   101   100    1
   108   101   103   ar
   109   175   174   ar
   110   105   103   ar
   111    71    72    1
   112    73    72    1
   113    73    74    2
   114   114   116   ar
   115   114   113   ar
   116   108   109    1
   117    76    74    1
   118   174   176   ar
   119   116   118   ar
   120    98    99    2
   121   112   113    1
   122   112   109    1
   123   171   172    2
   124    74    75    1
   125   113   115   ar
   126   186   185    1
   127   109   110    1
   128   187   185    1
   129   118   119    1
   130   118   117   ar
   131   185   184    2
   132   115   117   ar
   133   184   183    1
   134   183   182    1
   135    41    39   am
   136    31    30    2
   137   110   111    2
   138    30    29    1
   139    30    32   am
   140    29    28    1
   141    55    54   ar
   142    55    53   ar
   143   177   178    1
   144    54    52   ar
   145   182   181    1
   146    53    51   ar
   147    39    40    2
   148    39    38    1
   149   181   178    1
   150    28    25    1
   151    52    49   ar
   152   178   179    1
   153    51    49   ar
   154    51    50   ar
   155    49    47   ar
   156    38    37    1
   157   179   180    2
   158    50    48   ar
   159    47    46    1
   160    47    48   ar
   161    25    24    1
   162    25    26    1
   163    65    64   ar
   164    65    63   ar
   165    37    34    1
   166    46    43    1
   167    64    62   ar
   168    27    26    2
   169    34    33    1
   170    34    35    1
   171    63    61   ar
   172    43    44    1
   173    43    42    1
   174    62    61   ar
   175    36    35    2
   176    45    44    2
   177    61    60    1
   178    56    57    1
   179    60    57    1
   180    57    58    1
   181    58    59    2
