@<TRIPOS>MOLECULE
tmp/1hv7A00.pdb
 124 118 0 0 0
SMALL
GASTEIGER

@<TRIPOS>ATOM
      1  N         -0.5580   25.9220   31.9130 N.3    29  THR29      -0.1218
      2  CA        -1.5460   24.9280   32.3060 C.3    29  THR29       0.1862
      3  C         -2.2270   25.2310   33.6560 C.2    29  THR29       0.2287
      4  O         -3.4050   24.8630   33.8740 O.2    29  THR29      -0.2866
      5  CB        -0.9130   23.5090   32.2820 C.3    29  THR29       0.1770
      6  OG1       -1.9240   22.5430   32.5880 O.3    29  THR29      -0.2211
      7  CG2        0.1030   23.3320   33.4020 C.3    29  THR29       0.0375
      8  N         -3.5380   18.2040   41.0170 N.3    45  HIS45      -0.1241
      9  CA        -4.1500   17.9400   39.7220 C.3    45  HIS45       0.1621
     10  C         -3.4350   18.6740   38.5590 C.2    45  HIS45       0.2264
     11  O         -3.7410   18.3970   37.3960 O.2    45  HIS45      -0.2867
     12  CB        -5.6160   18.3820   39.8210 C.3    45  HIS45       0.0745
     13  CG        -6.5620   17.7140   38.8650 C.ar   45  HIS45       0.0817
     14  ND1       -6.2610   17.4270   37.5500 N.ar   45  HIS45      -0.2268
     15  CD2       -7.8660   17.3930   39.0300 C.ar   45  HIS45       0.1154
     16  CE1       -7.3350   16.9110   36.9660 C.ar   45  HIS45       0.1986
     17  NE2       -8.3100   16.8580   37.8490 N.ar   45  HIS45      -0.2212
     18  N        -10.9720   14.2340   42.8240 N.3    88  VAL88      -0.1231
     19  CA       -10.6550   15.5710   43.3460 C.3    88  VAL88       0.1692
     20  C        -11.5660   15.9460   44.5330 C.2    88  VAL88       0.2591
     21  O        -11.1330   16.6290   45.4580 O.2    88  VAL88      -0.2718
     22  CB       -10.6690   16.6440   42.2280 C.3    88  VAL88       0.0266
     23  CG1      -12.0870   16.8990   41.7290 C.3    88  VAL88       0.0020
     24  CG2      -10.0680   17.9680   42.7100 C.3    88  VAL88       0.0020
     25  N        -12.8030   15.4440   44.5440 N.am   89  ALA89      -0.1980
     26  CA       -13.7300   15.7590   45.6400 C.3    89  ALA89       0.1597
     27  C        -13.3200   15.2560   47.0160 C.2    89  ALA89       0.2287
     28  O        -13.8570   15.7000   48.0360 O.2    89  ALA89      -0.2864
     29  CB       -15.1880   15.2780   45.3000 C.3    89  ALA89       0.0319
     30  N        -22.9040   22.9990   47.2280 N.3   164  TRP164     -0.1241
     31  CA       -22.1660   21.8270   46.7630 C.3   164  TRP164      0.1605
     32  C        -22.4560   20.5340   47.4900 C.2   164  TRP164      0.2264
     33  O        -21.8750   19.4940   47.1670 O.2   164  TRP164     -0.2867
     34  CB       -20.6550   22.0990   46.8880 C.3   164  TRP164      0.0550
     35  CG       -20.0390   22.9390   45.7720 C.ar  164  TRP164      0.0003
     36  CD1      -19.7640   24.2830   45.7700 C.ar  164  TRP164      0.0946
     37  CD2      -19.6100   22.4380   44.5260 C.ar  164  TRP164      0.0152
     38  NE1      -19.1710   24.6490   44.5820 N.ar  164  TRP164     -0.2442
     39  CE2      -19.0770   23.5290   43.7850 C.ar  164  TRP164      0.0810
     40  CE3      -19.6040   21.1590   43.9490 C.ar  164  TRP164      0.0012
     41  CZ2      -18.5400   23.3780   42.5080 C.ar  164  TRP164      0.0191
     42  CZ3      -19.0640   21.0190   42.6720 C.ar  164  TRP164      0.0001
     43  CH2      -18.5320   22.1120   41.9710 C.ar  164  TRP164      0.0015
     44  N        -19.9830   17.2500   48.3920 N.3   167  THR167     -0.1218
     45  CA       -18.8490   17.2650   47.4840 C.3   167  THR167      0.1862
     46  C        -17.7350   18.1290   48.1250 C.2   167  THR167      0.2287
     47  O        -16.5510   17.8530   47.9670 O.2   167  THR167     -0.2866
     48  CB       -19.2920   17.9150   46.1860 C.3   167  THR167      0.1770
     49  OG1      -20.4050   17.1920   45.6100 O.3   167  THR167     -0.2211
     50  CG2      -18.1690   17.8640   45.1240 C.3   167  THR167      0.0375
     51  N        -11.7360   29.3740   36.3710 N.3   184  CYS184     -0.1221
     52  CA       -12.1040   28.5570   35.2050 C.3   184  CYS184      0.1808
     53  C        -10.8440   27.7850   34.8130 C.2   184  CYS184      0.2601
     54  O         -9.7610   28.0290   35.3950 O.2   184  CYS184     -0.2717
     55  CB       -12.6730   29.4630   34.1250 C.3   184  CYS184      0.0970
     56  SG       -13.8080   28.6450   32.9700 S.3   184  CYS184     -0.0800
     57  N        -10.9630   26.8600   33.8530 N.am  185  GLN185     -0.1965
     58  CA        -9.8180   26.0200   33.4850 C.3   185  GLN185      0.1733
     59  C         -8.5380   26.8360   33.2250 C.2   185  GLN185      0.2616
     60  O         -8.5640   27.8320   32.5070 O.2   185  GLN185     -0.2715
     61  CB       -10.1830   25.1150   32.3090 C.3   185  GLN185      0.0408
     62  CG       -11.0810   23.9320   32.7080 C.3   185  GLN185      0.0908
     63  CD       -12.5690   24.2740   32.8870 C.2   185  GLN185      0.2608
     64  OE1      -13.0000   25.4210   32.7250 O.2   185  GLN185     -0.2717
     65  NE2      -13.3570   23.2580   33.2690 N.am  185  GLN185     -0.0878
     66  N         -7.4250   26.4010   33.7980 N.am  186  GLY186     -0.1955
     67  CA        -6.2140   27.1740   33.6350 C.3   186  GLY186      0.1869
     68  C         -5.9210   28.0160   34.8970 C.2   186  GLY186      0.2309
     69  O         -4.8130   28.5430   35.0290 O.2   186  GLY186     -0.2863
     70  N         -6.6840   26.6730   37.9750 N.3   188  SER188     -0.1217
     71  CA        -6.3430   25.6360   38.9570 C.3   188  SER188      0.1889
     72  C         -4.9020   25.7610   39.4020 C.2   188  SER188      0.2288
     73  O         -4.0260   26.0970   38.6100 O.2   188  SER188     -0.2866
     74  CB        -6.5290   24.2310   38.3870 C.3   188  SER188      0.2089
     75  OG        -7.9360   23.8870   38.3980 O.3   188  SER188     -0.2183
     76  N         -6.6550   26.9690   44.0030 N.3   206  THR206     -0.1203
     77  CA        -7.8010   26.6990   43.1070 C.3   206  THR206      0.1994
     78  C         -7.8560   25.2380   42.7140 C.2   206  THR206      0.2619
     79  O         -6.8920   24.7150   42.2380 O.2   206  THR206     -0.2717
     80  CB        -7.6810   27.6100   41.8940 C.3   206  THR206      0.1784
     81  OG1       -7.5920   28.9620   42.3650 O.3   206  THR206     -0.2211
     82  CG2       -8.9860   27.5870   41.1180 C.3   206  THR206      0.0376
     83  N         -9.0060   24.5960   42.9480 N.am  207  SER207     -0.1937
     84  CA        -9.1560   23.1630   42.6910 C.3   207  SER207      0.2055
     85  C        -10.2740   22.7400   41.7350 C.2   207  SER207      0.2643
     86  O         -9.9930   21.9650   40.8160 O.2   207  SER207     -0.2714
     87  CB        -9.3320   22.4510   44.0380 C.3   207  SER207      0.2130
     88  OG        -9.3990   21.0200   43.8810 O.3   207  SER207     -0.2179
     89  N        -11.5110   23.1880   41.9390 N.am  208  PHE208     -0.1959
     90  CA       -12.5360   22.7730   41.0000 C.3   208  PHE208      0.1771
     91  C        -13.7480   23.6760   40.8820 C.2   208  PHE208      0.2619
     92  O        -13.9480   24.5890   41.6950 O.2   208  PHE208     -0.2715
     93  CB       -12.9730   21.2950   41.2460 C.3   208  PHE208      0.0574
     94  CG       -13.6390   21.0340   42.5840 C.ar  208  PHE208     -0.0200
     95  CD1      -12.9000   20.5810   43.6640 C.ar  208  PHE208     -0.0042
     96  CD2      -14.9990   21.1830   42.7360 C.ar  208  PHE208     -0.0042
     97  CE1      -13.5000   20.3000   44.8720 C.ar  208  PHE208     -0.0003
     98  CE2      -15.6150   20.9230   43.9450 C.ar  208  PHE208     -0.0003
     99  CZ       -14.8620   20.4690   45.0150 C.ar  208  PHE208     -0.0000
    100  N        -14.4830   23.4720   39.7760 N.am  209  VAL209     -0.1977
    101  CA       -15.7310   24.1970   39.5180 C.3   209  VAL209      0.1596
    102  C        -16.8190   23.1820   39.1320 C.2   209  VAL209      0.2287
    103  O        -16.5400   22.0090   38.9990 O.2   209  VAL209     -0.2864
    104  CB       -15.6070   25.2720   38.4040 C.3   209  VAL209      0.0276
    105  CG1      -14.6490   26.3950   38.8160 C.3   209  VAL209      0.0022
    106  CG2      -15.1840   24.6520   37.0710 C.3   209  VAL209      0.0022
    107  N        -19.7510   21.1370   36.9910 N.3   211  ARG211     -0.1245
    108  CA       -19.7490   20.4560   35.7030 C.3   211  ARG211      0.1563
    109  C        -20.5920   21.2590   34.7470 C.2   211  ARG211      0.2260
    110  O        -20.4870   21.0840   33.5260 O.2   211  ARG211     -0.2867
    111  CB       -20.3170   19.0420   35.8200 C.3   211  ARG211      0.0307
    112  CG       -21.7300   18.9710   36.2910 C.3   211  ARG211      0.0489
    113  CD       -22.2770   17.5750   36.2490 C.3   211  ARG211      0.2205
    114  NE       -22.3590   17.1350   34.8640 N.pl3 211  ARG211     -0.0865
    115  CZ       -23.3310   17.5000   34.0320 C.cat 211  ARG211      0.5346
    116  NH1      -24.3160   18.2780   34.4690 N.pl3 211  ARG211      0.1354
    117  NH2      -23.3240   17.0730   32.7710 N.pl3 211  ARG211      0.1354
    118  N        -16.4350   28.7660   43.3500 N.3   221  THR221     -0.1218
    119  CA       -15.2100   28.0380   43.0110 C.3   221  THR221      0.1862
    120  C        -14.7120   27.3540   44.2900 C.2   221  THR221      0.2287
    121  O        -14.8300   27.9120   45.4090 O.2   221  THR221     -0.2866
    122  CB       -14.2030   29.0620   42.5030 C.3   221  THR221      0.1770
    123  OG1      -14.7620   29.7550   41.3650 O.3   221  THR221     -0.2211
    124  CG2      -12.9580   28.3800   41.9890 C.3   221  THR221      0.0375
@<TRIPOS>BOND
     1     1     2    1
     2     5     2    1
     3     5     6    1
     4     5     7    1
     5     2     3    1
     6    61    62    1
     7    61    58    1
     8    60    59    2
     9    62    63    1
    10    64    63    2
    11   117   115    1
    12    63    65   am
    13    56    55    1
    14    59    58    1
    15    59    66   am
    16    58    57    1
    17   110   109    2
    18    67    66    1
    19    67    68    1
    20     3     4    2
    21    57    53   am
    22   115   116    1
    23   115   114    2
    24    55    52    1
    25   109   108    1
    26    53    52    1
    27    53    54    2
    28   114   113    1
    29    68    69    2
    30    52    51    1
    31   108   111    1
    32   108   107    1
    33   111   112    1
    34   113   112    1
    35    16    14   ar
    36    16    17   ar
    37   106   104    1
    38    11    10    2
    39    14    13   ar
    40    17    15   ar
    41    70    71    1
    42    74    75    1
    43    74    71    1
    44   104   105    1
    45   104   101    1
    46    10     9    1
    47    73    72    2
    48    13    15   ar
    49    13    12    1
    50    71    72    1
    51   103   102    2
    52   102   101    1
    53   101   100    1
    54     9    12    1
    55     9     8    1
    56   100    91   am
    57    86    85    2
    58    91    90    1
    59    91    92    2
    60    90    93    1
    61    90    89    1
    62    82    80    1
    63    93    94    1
    64   123   122    1
    65    23    22    1
    66    85    89   am
    67    85    84    1
    68    80    81    1
    69    80    77    1
    70    43    41   ar
    71    43    42   ar
    72   124   122    1
    73    22    24    1
    74    22    19    1
    75    79    78    2
    76   122   119    1
    77    41    39   ar
    78    94    96   ar
    79    94    95   ar
    80    42    40   ar
    81    84    83    1
    82    84    87    1
    83    78    83   am
    84    78    77    1
    85    96    98   ar
    86    18    19    1
    87   119   118    1
    88   119   120    1
    89    77    76    1
    90    19    20    1
    91    95    97   ar
    92    39    37   ar
    93    39    38   ar
    94    88    87    1
    95    98    99   ar
    96    40    37   ar
    97   120   121    2
    98    37    35   ar
    99    20    25   am
   100    20    21    2
   101    25    26    1
   102    38    36   ar
   103    97    99   ar
   104    50    48    1
   105    29    26    1
   106    49    48    1
   107    26    27    1
   108    36    35   ar
   109    35    34    1
   110    48    45    1
   111    31    34    1
   112    31    30    1
   113    31    32    1
   114    27    28    2
   115    33    32    2
   116    45    46    1
   117    45    44    1
   118    47    46    2
