@<TRIPOS>MOLECULE
tmp/1hvqA00.pdb
 126 121 0 0 0
SMALL
GASTEIGER

@<TRIPOS>ATOM
      1  N         11.4670   40.1390   18.5300 N.3     9  GLN9       -0.1231
      2  CA        11.6150   41.5780   18.4150 C.3     9  GLN9        0.1698
      3  C         11.5400   42.2060   17.0450 C.2     9  GLN9        0.2592
      4  O         11.9100   43.3690   16.8610 O.2     9  GLN9       -0.2718
      5  CB        12.9070   41.9500   19.0790 C.3     9  GLN9        0.0381
      6  CG        12.7060   41.7990   20.5910 C.3     9  GLN9        0.0905
      7  CD        11.7600   42.8340   21.1380 C.2     9  GLN9        0.2608
      8  OE1       11.9790   44.0000   20.8760 O.2     9  GLN9       -0.2717
      9  NE2       10.7230   42.5620   21.8970 N.am    9  GLN9       -0.0878
     10  N         11.0790   41.4540   16.0560 N.am   10  ASN10      -0.1960
     11  CA        10.7870   42.0230   14.7840 C.3    10  ASN10       0.1819
     12  C          9.6590   41.2000   14.2490 C.2    10  ASN10       0.2622
     13  O          9.7450   39.9730   14.1080 O.2    10  ASN10      -0.2715
     14  CB        11.9490   41.9430   13.8470 C.3    10  ASN10       0.1195
     15  CG        11.6230   42.7140   12.5790 C.2    10  ASN10       0.2630
     16  OD1       10.6870   42.3740   11.8660 O.2    10  ASN10      -0.2716
     17  ND2       12.3190   43.7560   12.1930 N.am   10  ASN10      -0.0877
     18  N          8.5600   41.8940   13.9640 N.am   11  GLY11      -0.1940
     19  CA         7.3290   41.2920   13.4970 C.3    11  GLY11       0.2014
     20  C          7.4680   40.5940   12.1540 C.2    11  GLY11       0.2638
     21  O          6.6810   39.6930   11.9000 O.2    11  GLY11      -0.2714
     22  N          8.4360   40.9150   11.3000 N.am   12  ASN12      -0.1972
     23  CA         8.5800   40.2840   10.0040 C.3    12  ASN12       0.1688
     24  C          9.5100   39.0750   10.0550 C.2    12  ASN12       0.2292
     25  O          9.9950   38.6270    9.0130 O.2    12  ASN12      -0.2864
     26  CB         9.1520   41.2680    8.9800 C.3    12  ASN12       0.1181
     27  CG         8.3410   42.5460    8.9180 C.2    12  ASN12       0.2629
     28  OD1        7.2050   42.5470    8.4410 O.2    12  ASN12      -0.2716
     29  ND2        8.8490   43.6560    9.4590 N.am   12  ASN12      -0.0877
     30  N         11.4550   39.3510   25.1630 N.3    32  PHE32      -0.1241
     31  CA        11.2290   40.2300   26.2740 C.3    32  PHE32       0.1605
     32  C          9.9880   40.6000   27.0070 C.2    32  PHE32       0.2264
     33  O          9.0260   41.2100   26.5810 O.2    32  PHE32      -0.2867
     34  CB        11.9990   41.5320   25.9580 C.3    32  PHE32       0.0534
     35  CG        13.4650   41.2970   25.5480 C.ar   32  PHE32      -0.0203
     36  CD1       14.2800   40.4040   26.2200 C.ar   32  PHE32      -0.0042
     37  CD2       13.9820   41.9550   24.4570 C.ar   32  PHE32      -0.0042
     38  CE1       15.5790   40.1630   25.8060 C.ar   32  PHE32      -0.0003
     39  CE2       15.2790   41.7100   24.0550 C.ar   32  PHE32      -0.0003
     40  CZ        16.0840   40.8110   24.7240 C.ar   32  PHE32      -0.0000
     41  N          9.9800   42.9260   29.3330 N.3    34  ASN34      -0.1240
     42  CA        10.8740   44.0880   29.5100 C.3    34  ASN34       0.1653
     43  C         10.4860   45.0920   30.6050 C.2    34  ASN34       0.2266
     44  O         11.2740   45.9940   30.9280 O.2    34  ASN34      -0.2867
     45  CB        11.0090   44.8070   28.1470 C.3    34  ASN34       0.1155
     46  CG         9.8040   45.5910   27.6460 C.2    34  ASN34       0.2627
     47  OD1        9.9790   46.7030   27.1320 O.2    34  ASN34      -0.2716
     48  ND2        8.5470   45.1360   27.7050 N.am   34  ASN34      -0.0877
     49  N          6.7620   42.2740   25.6390 N.3    45  ASN45      -0.1240
     50  CA         6.8040   43.0530   24.4190 C.3    45  ASN45       0.1653
     51  C          7.2610   42.1180   23.3120 C.2    45  ASN45       0.2266
     52  O          8.3890   41.6250   23.4150 O.2    45  ASN45      -0.2867
     53  CB         7.8020   44.2260   24.5250 C.3    45  ASN45       0.1155
     54  CG         7.8980   45.0130   23.2090 C.2    45  ASN45       0.2627
     55  OD1        8.7150   44.7110   22.3410 O.2    45  ASN45      -0.2716
     56  ND2        7.1090   46.0330   22.9180 N.am   45  ASN45      -0.0877
     57  N          7.0830   43.0380   19.9020 N.3    47  ALA47      -0.1231
     58  CA         7.0980   43.9190   18.7250 C.3    47  ALA47       0.1694
     59  C          5.8000   43.7990   17.9420 C.2    47  ALA47       0.2592
     60  O          4.7270   43.8150   18.5520 O.2    47  ALA47      -0.2718
     61  CB         8.2850   43.5410   17.8400 C.3    47  ALA47       0.0304
     62  N          5.8370   43.5870   16.6220 N.am   48  GLY48      -0.1957
     63  CA         4.6440   43.4960   15.8040 C.3    48  GLY48       0.1869
     64  C          4.0520   42.1050   15.7380 C.2    48  GLY48       0.2309
     65  O          3.0670   41.9250   15.0250 O.2    48  GLY48      -0.2863
     66  N         16.5040   42.8990   28.2250 N.3    80  GLY80      -0.1210
     67  CA        16.7170   43.4640   26.9130 C.3    80  GLY80       0.1956
     68  C         17.2420   44.8850   27.0250 C.2    80  GLY80       0.2612
     69  O         17.3410   45.4900   28.1070 O.2    80  GLY80      -0.2717
     70  N         17.5910   45.4150   25.8740 N.am   81  GLY81      -0.1942
     71  CA        18.1400   46.7550   25.8170 C.3    81  GLY81       0.2014
     72  C         17.1600   47.8620   26.2650 C.2    81  GLY81       0.2638
     73  O         17.6050   48.8500   26.8330 O.2    81  GLY81      -0.2714
     74  N         15.8440   47.7510   26.1040 N.am   82  ILE82      -0.1977
     75  CA        14.8970   48.8200   26.3640 C.3    82  ILE82       0.1596
     76  C         13.8940   48.3840   27.4330 C.2    82  ILE82       0.2287
     77  O         13.1910   47.3970   27.1940 O.2    82  ILE82      -0.2864
     78  CB        14.1990   49.1330   25.0240 C.3    82  ILE82       0.0276
     79  CG1       15.2250   49.5090   23.9880 C.3    82  ILE82       0.0022
     80  CG2       13.2170   50.2570   25.1900 C.3    82  ILE82       0.0022
     81  CD1       14.7290   49.5680   22.5400 C.3    82  ILE82       0.0001
     82  N         24.2500   44.5110   10.7340 N.3   223  GLU223     -0.1231
     83  CA        23.2140   45.4610   11.0840 C.3   223  GLU223      0.1699
     84  C         22.5870   45.1450   12.4160 C.2   223  GLU223      0.2592
     85  O         21.8460   45.9870   12.9210 O.2   223  GLU223     -0.2718
     86  CB        22.0790   45.4780   10.0670 C.3   223  GLU223      0.0402
     87  CG        22.4430   45.7810    8.6270 C.3   223  GLU223      0.1161
     88  CD        23.2010   44.7010    7.8230 C.2   223  GLU223      0.3649
     89  OE1       23.3230   43.5490    8.2480 O.co2 223  GLU223     -0.2457
     90  OE2       23.6780   45.0110    6.7290 O.co2 223  GLU223     -0.2457
     91  N         22.8310   43.9790   13.0240 N.am  224  ALA224     -0.1966
     92  CA        22.1640   43.6450   14.2780 C.3   224  ALA224      0.1728
     93  C         22.8080   44.2490   15.5140 C.2   224  ALA224      0.2616
     94  O         22.2060   44.2670   16.5960 O.2   224  ALA224     -0.2715
     95  CB        22.1280   42.1380   14.5000 C.3   224  ALA224      0.0334
     96  N         24.0450   44.7170   15.4420 N.am  225  ALA225     -0.1977
     97  CA        24.7030   45.2950   16.6050 C.3   225  ALA225      0.1597
     98  C         25.5270   46.5000   16.1410 C.2   225  ALA225      0.2287
     99  O         25.7770   46.6520   14.9350 O.2   225  ALA225     -0.2864
    100  CB        25.6350   44.2710   17.2590 C.3   225  ALA225      0.0319
    101  N         21.9540   36.9060   18.1020 N.3   255  TRP255     -0.1241
    102  CA        20.9600   37.9500   18.2220 C.3   255  TRP255      0.1605
    103  C         20.3590   38.2310   16.8190 C.2   255  TRP255      0.2264
    104  O         20.9320   38.6190   15.7990 O.2   255  TRP255     -0.2867
    105  CB        21.5210   39.2860   18.8540 C.3   255  TRP255      0.0550
    106  CG        20.4120   40.3600   18.9250 C.ar  255  TRP255      0.0003
    107  CD1       20.4510   41.3890   18.0400 C.ar  255  TRP255      0.0946
    108  CD2       19.2510   40.3520   19.6640 C.ar  255  TRP255      0.0152
    109  NE1       19.3140   41.9980   18.1810 N.ar  255  TRP255     -0.2442
    110  CE2       18.5740   41.4310   19.1260 C.ar  255  TRP255      0.0810
    111  CE3       18.6380   39.6450   20.6690 C.ar  255  TRP255      0.0012
    112  CZ2       17.3110   41.8350   19.5440 C.ar  255  TRP255      0.0191
    113  CZ3       17.3780   40.0400   21.0970 C.ar  255  TRP255      0.0001
    114  CH2       16.7090   41.1210   20.5480 C.ar  255  TRP255      0.0015
    115  N         17.5840   38.9360   11.7600 N.3   259  TYR259     -0.1241
    116  CA        18.8230   39.1740   11.0560 C.3   259  TYR259      0.1605
    117  C         19.4020   37.9290   10.4860 C.2   259  TYR259      0.2264
    118  O         19.9300   37.9580    9.3780 O.2   259  TYR259     -0.2867
    119  CB        19.8100   39.8240   11.9880 C.3   259  TYR259      0.0534
    120  CG        19.3250   41.2450   12.1690 C.ar  259  TYR259     -0.0201
    121  CD1       19.4010   42.0850   11.0810 C.ar  259  TYR259     -0.0009
    122  CD2       18.7640   41.6580   13.3640 C.ar  259  TYR259     -0.0009
    123  CE1       18.9040   43.3620   11.1700 C.ar  259  TYR259      0.0417
    124  CE2       18.2560   42.9410   13.4750 C.ar  259  TYR259      0.0417
    125  CZ        18.3360   43.7780   12.3650 C.ar  259  TYR259      0.1957
    126  OH        17.8270   45.0640   12.4280 O.3   259  TYR259     -0.2866
@<TRIPOS>BOND
     1    90    88   ar
     2    88    89   ar
     3    88    87    1
     4    28    27    2
     5    87    86    1
     6    27    26    1
     7    27    29   am
     8    26    23    1
     9    25    24    2
    10   118   117    2
    11    23    24    1
    12    23    22    1
    13    86    83    1
    14   117   116    1
    15    82    83    1
    16   116   115    1
    17   116   119    1
    18   121   123   ar
    19   121   120   ar
    20    83    84    1
    21   123   125   ar
    22    22    20   am
    23    16    15    2
    24    21    20    2
    25   119   120    1
    26    20    19    1
    27   120   122   ar
    28    17    15   am
    29   125   126    1
    30   125   124   ar
    31    84    85    2
    32    84    91   am
    33    15    14    1
    34    91    92    1
    35   122   124   ar
    36    19    18    1
    37    14    11    1
    38    18    12   am
    39    13    12    2
    40    12    11    1
    41    92    95    1
    42    92    93    1
    43    11    10    1
    44    99    98    2
    45    65    64    2
    46    96    93   am
    47    96    97    1
    48    93    94    2
    49    64    63    1
    50   104   103    2
    51    63    62    1
    52    10     3   am
    53    98    97    1
    54    97   100    1
    55    62    59   am
    56   103   102    1
    57     4     3    2
    58     3     2    1
    59    61    58    1
    60    59    60    2
    61    59    58    1
    62   107   109   ar
    63   107   106   ar
    64   101   102    1
    65   109   110   ar
    66   102   105    1
    67     2     1    1
    68     2     5    1
    69    58    57    1
    70   105   106    1
    71   106   108   ar
    72     5     6    1
    73   110   112   ar
    74   110   108   ar
    75   112   114   ar
    76   108   111   ar
    77   114   113   ar
    78     6     7    1
    79   111   113   ar
    80     8     7    2
    81     7     9   am
    82    55    54    2
    83    81    79    1
    84    56    54   am
    85    54    53    1
    86    51    52    2
    87    51    50    1
    88    79    78    1
    89    39    37   ar
    90    39    40   ar
    91    50    53    1
    92    50    49    1
    93    37    35   ar
    94    40    38   ar
    95    78    80    1
    96    78    75    1
    97    30    31    1
    98    35    34    1
    99    35    36   ar
   100    38    36   ar
   101    71    70    1
   102    71    72    1
   103    70    68   am
   104    34    31    1
   105    74    72   am
   106    74    75    1
   107    72    73    2
   108    31    32    1
   109    75    76    1
   110    33    32    2
   111    67    68    1
   112    67    66    1
   113    68    69    2
   114    47    46    2
   115    77    76    2
   116    46    48   am
   117    46    45    1
   118    45    42    1
   119    41    42    1
   120    42    43    1
   121    43    44    2
