@<TRIPOS>MOLECULE
tmp/1hvrB00.pdb
 120 112 0 0 0
SMALL
GASTEIGER

@<TRIPOS>ATOM
      1  N        -21.5320   19.5410   34.3950 N.3     8  ARG8       -0.1245
      2  CA       -20.9130   19.3830   33.0720 C.3     8  ARG8        0.1563
      3  C        -21.7120   20.0890   31.9900 C.2     8  ARG8        0.2260
      4  O        -22.9310   19.9550   31.9880 O.2     8  ARG8       -0.2867
      5  CB       -20.8640   17.9160   32.7070 C.3     8  ARG8        0.0307
      6  CG       -19.9390   17.1000   33.5540 C.3     8  ARG8        0.0489
      7  CD       -19.8650   15.7180   32.9230 C.3     8  ARG8        0.2205
      8  NE       -18.8790   14.8620   33.5930 N.pl3   8  ARG8       -0.0865
      9  CZ       -17.6950   14.5220   33.0090 C.cat   8  ARG8        0.5346
     10  NH1      -17.3490   14.9360   31.7830 N.pl3   8  ARG8        0.1354
     11  NH2      -16.8290   13.7460   33.6660 N.pl3   8  ARG8        0.1354
     12  N        -20.1230   16.7690   25.4130 N.3    23  LEU23      -0.1245
     13  CA       -19.5760   17.7480   26.3360 C.3    23  LEU23       0.1561
     14  C        -18.9850   18.9240   25.5750 C.2    23  LEU23       0.2260
     15  O        -18.1750   18.7890   24.6570 O.2    23  LEU23      -0.2867
     16  CB       -18.5580   16.9380   27.1190 C.3    23  LEU23       0.0270
     17  CG       -17.7340   17.5930   28.2140 C.3    23  LEU23       0.0019
     18  CD1      -18.5970   17.9100   29.4350 C.3    23  LEU23       0.0001
     19  CD2      -16.5600   16.6640   28.5490 C.3    23  LEU23       0.0001
     20  N        -16.3570   21.4010   25.2380 N.3    25  ASP25      -0.1239
     21  CA       -15.0150   21.3230   25.7850 C.3    25  ASP25       0.1674
     22  C        -14.0500   22.3540   25.1930 C.2    25  ASP25       0.2266
     23  O        -13.4740   22.1580   24.1530 O.2    25  ASP25      -0.2867
     24  CB       -14.5650   19.9060   25.4450 C.3    25  ASP25       0.1410
     25  CG       -13.3810   19.4470   26.2700 C.2    25  ASP25       0.3668
     26  OD1      -12.6640   20.2630   26.8280 O.co2  25  ASP25      -0.2456
     27  OD2      -13.1760   18.2460   26.3840 O.co2  25  ASP25      -0.2456
     28  N        -11.1030   22.9340   26.1440 N.3    27  GLY27      -0.1210
     29  CA        -9.7300   22.4520   26.2050 C.3    27  GLY27       0.1956
     30  C         -9.3340   21.6840   25.0010 C.2    27  GLY27       0.2612
     31  O         -8.1640   21.4670   24.8040 O.2    27  GLY27      -0.2717
     32  N        -10.3270   21.2220   24.2260 N.am   28  ALA28      -0.1965
     33  CA       -10.1320   20.2250   23.1760 C.3    28  ALA28       0.1728
     34  C        -10.0930   20.9270   21.8690 C.2    28  ALA28       0.2616
     35  O        -10.9590   21.7110   21.5140 O.2    28  ALA28      -0.2715
     36  CB       -11.2970   19.2420   23.0990 C.3    28  ALA28       0.0334
     37  N         -9.0300   20.6540   21.1360 N.am   29  ASP29      -0.1957
     38  CA        -8.9350   21.4010   19.9090 C.3    29  ASP29       0.1840
     39  C         -9.9160   20.9420   18.8700 C.2    29  ASP29       0.2622
     40  O        -10.3170   21.7220   18.0330 O.2    29  ASP29      -0.2715
     41  CB        -7.5490   21.3340   19.2990 C.3    29  ASP29       0.1450
     42  CG        -6.4430   21.7270   20.2410 C.2    29  ASP29       0.3671
     43  OD1       -6.6540   22.5120   21.1740 O.co2  29  ASP29      -0.2456
     44  OD2       -5.3520   21.2080   20.0080 O.co2  29  ASP29      -0.2456
     45  N        -10.2980   19.6730   18.9340 N.am   30  ASP30      -0.1971
     46  CA       -11.1830   19.1210   17.9240 C.3    30  ASP30       0.1709
     47  C        -12.2600   18.3310   18.5730 C.2    30  ASP30       0.2293
     48  O        -12.2740   18.2080   19.7810 O.2    30  ASP30      -0.2864
     49  CB       -10.4260   18.2390   16.9520 C.3    30  ASP30       0.1436
     50  CG        -9.6710   19.0890   15.9440 C.2    30  ASP30       0.3671
     51  OD1      -10.2870   19.8270   15.1580 O.co2  30  ASP30      -0.2456
     52  OD2       -8.4400   19.0030   15.9580 O.co2  30  ASP30      -0.2456
     53  N        -14.3860   14.8710   19.0790 N.3    32  VAL32      -0.1245
     54  CA       -14.2110   13.4140   19.0520 C.3    32  VAL32       0.1561
     55  C        -15.5050   12.7030   19.5100 C.2    32  VAL32       0.2260
     56  O        -15.9460   12.8670   20.6400 O.2    32  VAL32      -0.2867
     57  CB       -13.1760   12.9270   20.0800 C.3    32  VAL32       0.0252
     58  CG1      -12.7600   11.4970   19.6970 C.3    32  VAL32       0.0019
     59  CG2      -12.0020   13.8930   20.3530 C.3    32  VAL32       0.0019
     60  N         -4.8400   10.8320   18.3310 N.3    47  ILE47      -0.1231
     61  CA        -4.8970   12.0600   19.1410 C.3    47  ILE47       0.1692
     62  C         -4.4100   11.8000   20.5380 C.2    47  ILE47       0.2593
     63  O         -4.5730   10.7100   21.0700 O.2    47  ILE47      -0.2718
     64  CB        -6.3160   12.6860   19.1860 C.3    47  ILE47       0.0266
     65  CG1       -7.3780   11.6910   19.6230 C.3    47  ILE47       0.0019
     66  CG2       -6.7110   13.2930   17.8430 C.3    47  ILE47       0.0020
     67  CD1       -8.6310   12.3540   20.1760 C.3    47  ILE47       0.0001
     68  N         -3.7970   12.7960   21.1380 N.am   48  GLY48      -0.1942
     69  CA        -3.3380   12.5060   22.4870 C.3    48  GLY48       0.2014
     70  C         -4.0920   13.2540   23.5770 C.2    48  GLY48       0.2639
     71  O         -4.4080   14.4210   23.4110 O.2    48  GLY48      -0.2714
     72  N         -4.3710   12.5630   24.6950 N.am   49  GLY49      -0.1939
     73  CA        -5.0030   13.2050   25.8400 C.3    49  GLY49       0.2014
     74  C         -4.1530   13.0580   27.0760 C.2    49  GLY49       0.2638
     75  O         -3.0230   12.6130   27.0500 O.2    49  GLY49      -0.2714
     76  N         -4.7860   13.3480   28.1870 N.am   50  ILE50      -0.1977
     77  CA        -4.4340   12.6360   29.3970 C.3    50  ILE50       0.1596
     78  C         -4.6220   11.1170   29.2910 C.2    50  ILE50       0.2287
     79  O         -5.5920   10.5230   28.7980 O.2    50  ILE50      -0.2864
     80  CB        -5.2280   13.2780   30.5300 C.3    50  ILE50       0.0276
     81  CG1       -4.5220   14.6020   30.8120 C.3    50  ILE50       0.0022
     82  CG2       -5.3170   12.4360   31.8060 C.3    50  ILE50       0.0022
     83  CD1       -5.0710   15.3100   32.0390 C.3    50  ILE50       0.0001
     84  N        -13.8440   13.6370   14.5840 N.3    75  LEU75      -0.1245
     85  CA       -13.0370   12.4320   14.7510 C.3    75  LEU75       0.1561
     86  C        -13.9520   11.4430   15.4090 C.2    75  LEU75       0.2260
     87  O        -14.7600   11.8640   16.2230 O.2    75  LEU75      -0.2867
     88  CB       -11.9480   12.7550   15.7380 C.3    75  LEU75       0.0270
     89  CG       -10.6720   13.3540   15.2170 C.3    75  LEU75       0.0019
     90  CD1      -10.7960   14.1920   13.9820 C.3    75  LEU75       0.0001
     91  CD2      -10.0590   14.1620   16.3560 C.3    75  LEU75       0.0001
     92  N        -13.5660    7.2140   22.4520 N.3    79  THR79      -0.1204
     93  CA       -13.4830    8.1800   23.5490 C.3    79  THR79       0.1979
     94  C        -14.5560    7.7640   24.5180 C.2    79  THR79       0.2460
     95  O        -15.5880    7.2720   24.1100 O.2    79  THR79      -0.2732
     96  CB       -13.7530    9.5910   23.0010 C.3    79  THR79       0.1783
     97  OG1      -13.8510   10.4910   24.0980 O.3    79  THR79      -0.2211
     98  CG2      -15.0330    9.6860   22.1700 C.3    79  THR79       0.0376
     99  N        -14.3270    7.9860   25.7940 N.am   80  PRO80      -0.2717
    100  CA       -15.4100    7.6960   26.7300 C.3    80  PRO80       0.1535
    101  C        -16.5450    8.7080   26.7730 C.2    80  PRO80       0.2598
    102  O        -17.5560    8.4330   27.3970 O.2    80  PRO80      -0.2715
    103  CB       -14.6760    7.6540   28.0890 C.3    80  PRO80       0.0310
    104  CG       -13.4710    8.5770   27.9310 C.3    80  PRO80       0.0237
    105  CD       -13.1010    8.4560   26.4570 C.3    80  PRO80       0.0939
    106  N        -16.3740    9.8980   26.2090 N.am   81  VAL81      -0.1978
    107  CA       -17.4280   10.9280   26.2660 C.3    81  VAL81       0.1596
    108  C        -17.3770   11.5680   24.9140 C.2    81  VAL81       0.2287
    109  O        -16.3110   11.6870   24.3400 O.2    81  VAL81      -0.2864
    110  CB       -17.1720   11.9750   27.4190 C.3    81  VAL81       0.0276
    111  CG1      -18.0830   13.2030   27.3760 C.3    81  VAL81       0.0022
    112  CG2      -17.5060   11.3380   28.7800 C.3    81  VAL81       0.0022
    113  N        -17.2050   14.7140   22.7200 N.3    83  ILE83      -0.1245
    114  CA       -16.5870   16.0280   23.0150 C.3    83  ILE83       0.1561
    115  C        -16.8060   16.9060   21.8320 C.2    83  ILE83       0.2260
    116  O        -16.4740   16.5080   20.7200 O.2    83  ILE83      -0.2867
    117  CB       -15.0500   15.8610   23.2340 C.3    83  ILE83       0.0252
    118  CG1      -14.8010   15.0700   24.5410 C.3    83  ILE83       0.0019
    119  CG2      -14.2120   17.1740   23.1670 C.3    83  ILE83       0.0019
    120  CD1      -13.5160   14.2810   24.4430 C.3    83  ILE83       0.0001
@<TRIPOS>BOND
     1    90    89    1
     2    84    85    1
     3    85    86    1
     4    85    88    1
     5    51    50   ar
     6    89    88    1
     7    89    91    1
     8    86    87    2
     9    50    52   ar
    10    50    49    1
    11    49    46    1
    12    66    64    1
    13    46    47    1
    14    46    45    1
    15    40    39    2
    16    60    61    1
    17    47    48    2
    18    39    45   am
    19    39    38    1
    20    54    53    1
    21    54    55    1
    22    54    57    1
    23    61    64    1
    24    61    62    1
    25    64    65    1
    26    41    38    1
    27    41    42    1
    28    55    56    2
    29    65    67    1
    30    58    57    1
    31    38    37    1
    32    44    42   ar
    33    57    59    1
    34    42    43   ar
    35    62    63    2
    36    62    68   am
    37   116   115    2
    38    37    34   am
    39    68    69    1
    40    35    34    2
    41   115   114    1
    42    34    33    1
    43    98    96    1
    44    92    93    1
    45    69    70    1
    46   113   114    1
    47    96    93    1
    48    96    97    1
    49   114   117    1
    50    36    33    1
    51   119   117    1
    52    33    32    1
    53   117   118    1
    54    71    70    2
    55    93    94    1
    56    70    72   am
    57    95    94    2
    58    23    22    2
    59    32    30   am
    60   109   108    2
    61   120   118    1
    62    94    99   am
    63    15    14    2
    64    72    73    1
    65    31    30    2
    66   108   107    1
    67    30    29    1
    68    22    21    1
    69    20    21    1
    70    12    13    1
    71    24    21    1
    72    24    25    1
    73    14    13    1
    74    99   105    1
    75    99   100    1
    76    73    74    1
    77    28    29    1
    78   106   107    1
    79   106   101   am
    80   107   110    1
    81    25    27   ar
    82    25    26   ar
    83    13    16    1
    84   105   104    1
    85   100   101    1
    86   100   103    1
    87   101   102    2
    88    75    74    2
    89    74    76   am
    90    16    17    1
    91   111   110    1
    92   110   112    1
    93   104   103    1
    94    76    77    1
    95    17    19    1
    96    17    18    1
    97    79    78    2
    98    78    77    1
    99    77    80    1
   100    80    81    1
   101    80    82    1
   102    81    83    1
   103    10     9    1
   104     4     3    2
   105     3     2    1
   106     5     2    1
   107     5     6    1
   108     7     6    1
   109     7     8    1
   110     9     8    2
   111     9    11    1
   112     2     1    1
