@<TRIPOS>MOLECULE
tmp/1hw5A01.pdb
 90 85 0 0 0
SMALL
GASTEIGER

@<TRIPOS>ATOM
      1  N         -4.4080    6.5170   34.3920 N.3    56  GLY56      -0.1210
      2  CA        -4.7510    5.3360   35.1790 C.3    56  GLY56       0.1956
      3  C         -3.8340    4.1810   34.8510 C.2    56  GLY56       0.2612
      4  O         -3.9910    3.0340   35.2510 O.2    56  GLY56      -0.2717
      5  N         -2.7960    4.4730   34.0650 N.am   57  LYS57      -0.1965
      6  CA        -1.8790    3.3730   33.7620 C.3    57  LYS57       0.1728
      7  C         -0.9780    3.1570   34.9680 C.2    57  LYS57       0.2616
      8  O         -0.5370    4.1020   35.6220 O.2    57  LYS57      -0.2715
      9  CB        -1.0680    3.6530   32.4970 C.3    57  LYS57       0.0311
     10  CG        -1.9380    3.9440   31.2800 C.3    57  LYS57       0.0038
     11  CD        -1.4620    3.2070   30.0420 C.3    57  LYS57       0.0206
     12  CE        -0.3520    3.9790   29.3560 C.3    57  LYS57       0.1093
     13  NZ        -0.0130    5.2180   30.1140 N.3    57  LYS57      -0.1314
     14  N         -0.7170    1.8870   35.2380 N.am   58  GLU58      -0.1963
     15  CA         0.1080    1.5360   36.3860 C.3    58  GLU58       0.1733
     16  C          1.3850    0.8420   35.9430 C.2    58  GLU58       0.2616
     17  O          1.3730   -0.0060   35.0530 O.2    58  GLU58      -0.2715
     18  CB        -0.6650    0.6240   37.3440 C.3    58  GLU58       0.0429
     19  CG        -1.9070    1.2880   37.9310 C.3    58  GLU58       0.1163
     20  CD        -2.6650    0.3110   38.8130 C.2    58  GLU58       0.3649
     21  OE1       -2.5780   -0.9060   38.5460 O.co2  58  GLU58      -0.2457
     22  OE2       -3.3250    0.7810   39.7610 O.co2  58  GLU58      -0.2457
     23  N          2.4850    1.2160   36.5930 N.am   59  MET59      -0.1977
     24  CA         3.7190    0.4770   36.3440 C.3    59  MET59       0.1605
     25  C          4.3460    0.1470   37.6990 C.2    59  MET59       0.2287
     26  O          4.0850    0.8650   38.6660 O.2    59  MET59      -0.2864
     27  CB         4.6490    1.2450   35.4240 C.3    59  MET59       0.0413
     28  CG         5.1900    2.5530   35.9470 C.3    59  MET59       0.0598
     29  SD         6.6220    2.2880   37.0160 S.3    59  MET59      -0.1393
     30  CE         7.7160    1.4440   35.8590 C.3    59  MET59       0.0692
     31  N         12.9380   -4.8980   26.8760 N.3   142  ARG142     -0.1245
     32  CA        12.4880   -4.8540   28.2600 C.3   142  ARG142      0.1563
     33  C         11.7810   -6.1490   28.6410 C.2   142  ARG142      0.2260
     34  O         11.9760   -6.7250   29.7100 O.2   142  ARG142     -0.2867
     35  CB        11.5440   -3.6760   28.4260 C.3   142  ARG142      0.0307
     36  CG        12.1300   -2.2780   28.3500 C.3   142  ARG142      0.0489
     37  CD        10.9610   -1.3000   28.4000 C.3   142  ARG142      0.2205
     38  NE        11.1340   -0.0470   27.7000 N.pl3 142  ARG142     -0.0865
     39  CZ        10.2070    0.8870   27.5100 C.cat 142  ARG142      0.5346
     40  NH1       10.5240    1.9960   26.8460 N.pl3 142  ARG142      0.1354
     41  NH2        8.9680    0.7450   27.9640 N.pl3 142  ARG142      0.1354
     42  N         -0.6810   -8.7930   32.0630 N.3   170  GLN170     -0.1245
     43  CA        -0.8260   -7.4890   32.7150 C.3   170  GLN170      0.1566
     44  C          0.4030   -7.1460   33.5680 C.2   170  GLN170      0.2260
     45  O          0.9000   -6.0200   33.5200 O.2   170  GLN170     -0.2867
     46  CB        -2.0940   -7.4160   33.5760 C.3   170  GLN170      0.0367
     47  CG        -2.6600   -6.0000   33.6310 C.3   170  GLN170      0.0905
     48  CD        -4.0010   -5.9430   34.3360 C.2   170  GLN170      0.2608
     49  OE1       -4.1080   -6.4520   35.4500 O.2   170  GLN170     -0.2717
     50  NE2       -5.0090   -5.3380   33.7140 N.am  170  GLN170     -0.0878
     51  N          3.2840   -6.2270   31.3660 N.3   173  GLY173     -0.1210
     52  CA         2.9790   -4.9180   30.8000 C.3   173  GLY173      0.1956
     53  C          3.2280   -3.7960   31.7910 C.2   173  GLY173      0.2611
     54  O          3.7570   -2.7240   31.4810 O.2   173  GLY173     -0.2717
     55  N          2.8260   -4.0450   33.0380 N.am  174  GLN174     -0.1979
     56  CA         3.0560   -3.0240   34.0640 C.3   174  GLN174      0.1601
     57  C          4.5470   -2.8840   34.3050 C.2   174  GLN174      0.2287
     58  O          5.0510   -1.7970   34.5790 O.2   174  GLN174     -0.2864
     59  CB         2.3120   -3.3800   35.3420 C.3   174  GLN174      0.0394
     60  CG         0.8030   -3.4530   35.1490 C.3   174  GLN174      0.0908
     61  CD         0.0630   -3.7920   36.4280 C.2   174  GLN174      0.2608
     62  OE1        0.4410   -4.7130   37.1560 O.2   174  GLN174     -0.2717
     63  NE2       -1.0070   -3.0550   36.7110 N.am  174  GLN174     -0.0878
     64  N          5.7950   -1.2660   30.5130 N.3   177  GLY177     -0.1210
     65  CA         5.1880   -0.0940   29.8790 C.3   177  GLY177      0.1956
     66  C          4.5490   -0.4310   28.5470 C.2   177  GLY177      0.2612
     67  O          4.9820    0.0310   27.4890 O.2   177  GLY177     -0.2717
     68  N          3.5000   -1.2450   28.5690 N.am  178  CYS178     -0.1956
     69  CA         2.7480   -1.5810   27.3670 C.3   178  CYS178      0.1843
     70  C          1.5280   -2.4170   27.7340 C.2   178  CYS178      0.2626
     71  O          1.4560   -3.0430   28.7910 O.2   178  CYS178     -0.2714
     72  CB         3.6030   -2.3410   26.3480 C.3   178  CYS178      0.0997
     73  SG         3.8900   -4.0830   26.7750 S.3   178  CYS178     -0.0797
     74  N          0.5530   -2.4240   26.8300 N.am  179  SER179     -0.1936
     75  CA        -0.6330   -3.2400   27.0130 C.3   179  SER179      0.2055
     76  C         -0.3160   -4.7390   27.0910 C.2   179  SER179      0.2642
     77  O          0.6950   -5.2490   26.6120 O.2   179  SER179     -0.2714
     78  CB        -1.6260   -2.9950   25.8710 C.3   179  SER179      0.2130
     79  OG        -1.2330   -3.6450   24.6660 O.3   179  SER179     -0.2179
     80  N         -1.2670   -5.3810   27.7250 N.am  180  ARG180     -0.1977
     81  CA        -1.7550   -6.7240   27.7400 C.3   180  ARG180      0.1597
     82  C         -1.5720   -7.3970   26.3790 C.2   180  ARG180      0.2287
     83  O         -0.9240   -8.4290   26.2530 O.2   180  ARG180     -0.2864
     84  CB        -3.2580   -6.7090   28.0400 C.3   180  ARG180      0.0334
     85  CG        -3.7680   -7.6020   29.1500 C.3   180  ARG180      0.0492
     86  CD        -5.0350   -7.0030   29.7590 C.3   180  ARG180      0.2205
     87  NE        -5.1670   -7.3720   31.1650 N.pl3 180  ARG180     -0.0865
     88  CZ        -6.2120   -8.0000   31.6870 C.cat 180  ARG180      0.5346
     89  NH1       -6.2280   -8.2920   32.9810 N.pl3 180  ARG180      0.1354
     90  NH2       -7.2370   -8.3330   30.9120 N.pl3 180  ARG180      0.1354
@<TRIPOS>BOND
     1    79    78    1
     2    78    75    1
     3    83    82    2
     4    72    73    1
     5    72    69    1
     6    82    81    1
     7    77    76    2
     8    74    75    1
     9    74    70   am
    10    40    39    1
    11    31    32    1
    12    75    76    1
    13    76    80   am
    14    69    70    1
    15    69    68    1
    16    67    66    2
    17    39    38    2
    18    39    41    1
    19    38    37    1
    20    80    81    1
    21    70    71    2
    22    81    84    1
    23    84    85    1
    24    32    35    1
    25    32    33    1
    26    36    37    1
    27    36    35    1
    28    66    68   am
    29    66    65    1
    30    33    34    2
    31    85    86    1
    32    12    11    1
    33    12    13    1
    34    86    87    1
    35    65    64    1
    36    11    10    1
    37    52    51    1
    38    52    53    1
    39    90    88    1
    40    87    88    2
    41    10     9    1
    42    54    53    2
    43    88    89    1
    44    53    55   am
    45    42    43    1
    46     9     6    1
    47    43    44    1
    48    43    46    1
    49    55    56    1
    50    45    44    2
    51    46    47    1
    52    47    48    1
    53    50    48   am
    54     6     5    1
    55     6     7    1
    56    56    57    1
    57    56    59    1
    58     5     3   am
    59    57    58    2
    60    48    49    2
    61     1     2    1
    62     3     2    1
    63     3     4    2
    64     7    14   am
    65     7     8    2
    66    17    16    2
    67    60    59    1
    68    60    61    1
    69    14    15    1
    70    27    28    1
    71    27    24    1
    72    30    29    1
    73    16    15    1
    74    16    23   am
    75    28    29    1
    76    24    23    1
    77    24    25    1
    78    15    18    1
    79    61    63   am
    80    61    62    2
    81    18    19    1
    82    25    26    2
    83    19    20    1
    84    21    20   ar
    85    20    22   ar
