@<TRIPOS>MOLECULE
tmp/1hw5A00.pdb
 151 141 0 0 0
SMALL
GASTEIGER

@<TRIPOS>ATOM
      1  N         -0.5220    0.6190   51.0720 N.3    30  ILE30      -0.1245
      2  CA        -0.0730    2.0060   51.0850 C.3    30  ILE30       0.1561
      3  C         -0.6090    2.7260   49.8490 C.2    30  ILE30       0.2260
      4  O         -0.5300    2.1860   48.7410 O.2    30  ILE30      -0.2867
      5  CB         1.4700    2.1020   51.1030 C.3    30  ILE30       0.0252
      6  CG1        2.1300    1.4770   52.3410 C.3    30  ILE30       0.0019
      7  CG2        1.9550    3.5320   50.9300 C.3    30  ILE30       0.0019
      8  CD1        3.6430    1.5810   52.3310 C.3    30  ILE30       0.0001
      9  N          2.9760   10.2500   55.2290 N.3    36  ALA36      -0.1245
     10  CA         3.8400    9.1470   55.6630 C.3    36  ALA36       0.1562
     11  C          4.1540    9.2290   57.1490 C.2    36  ALA36       0.2260
     12  O          4.8670   10.1040   57.6500 O.2    36  ALA36      -0.2867
     13  CB         5.0970    9.1580   54.7970 C.3    36  ALA36       0.0290
     14  N          5.1780   -2.5550   44.3400 N.3    49  VAL49      -0.1245
     15  CA         5.2720   -1.1040   44.4740 C.3    49  VAL49       0.1561
     16  C          4.9440   -0.5050   43.1270 C.2    49  VAL49       0.2260
     17  O          5.5550   -0.8390   42.1050 O.2    49  VAL49      -0.2867
     18  CB         6.6770   -0.6620   44.8910 C.3    49  VAL49       0.0252
     19  CG1        6.7400    0.8480   44.8980 C.3    49  VAL49       0.0019
     20  CG2        7.0450   -1.2540   46.2480 C.3    49  VAL49       0.0019
     21  N          7.3410   -0.3310   40.2380 N.3    61  LEU61      -0.1231
     22  CA         8.6880    0.1640   40.5180 C.3    61  LEU61       0.1693
     23  C          9.5590   -0.9850   41.0020 C.2    61  LEU61       0.2592
     24  O         10.7650   -1.0440   40.8120 O.2    61  LEU61      -0.2718
     25  CB         8.6860    1.2760   41.5630 C.3    61  LEU61       0.0284
     26  CG         8.2650    2.6500   41.0250 C.3    61  LEU61       0.0019
     27  CD1        8.1960    3.6610   42.1580 C.3    61  LEU61       0.0001
     28  CD2        9.2060    3.0800   39.9140 C.3    61  LEU61       0.0001
     29  N          8.8750   -1.9230   41.6490 N.am   62  SER62      -0.1952
     30  CA         9.5490   -3.0120   42.3130 C.3    62  SER62       0.1924
     31  C          8.5290   -3.9570   42.9410 C.2    62  SER62       0.2314
     32  O          7.4120   -3.5570   43.2560 O.2    62  SER62      -0.2863
     33  CB        10.4430   -2.4870   43.4540 C.3    62  SER62       0.2116
     34  OG        11.2470   -3.5370   43.9790 O.3    62  SER62      -0.2180
     35  N          8.5000   -6.3550   46.3880 N.3    64  LEU64      -0.1245
     36  CA         9.2640   -6.5420   47.6230 C.3    64  LEU64       0.1561
     37  C          8.7040   -7.7930   48.2910 C.2    64  LEU64       0.2260
     38  O          7.5730   -8.1890   47.9780 O.2    64  LEU64      -0.2867
     39  CB         9.2110   -5.3090   48.5110 C.3    64  LEU64       0.0270
     40  CG         9.8870   -4.0430   47.9890 C.3    64  LEU64       0.0019
     41  CD1        9.6030   -2.8350   48.8770 C.3    64  LEU64       0.0001
     42  CD2       11.3890   -4.2430   47.8750 C.3    64  LEU64       0.0001
     43  N          8.9810   -1.5400   54.1400 N.3    70  ILE70      -0.1231
     44  CA         8.1700   -0.7700   53.2070 C.3    70  ILE70       0.1692
     45  C          7.6710    0.4760   53.9360 C.2    70  ILE70       0.2593
     46  O          7.5200    0.4250   55.1570 O.2    70  ILE70      -0.2718
     47  CB         6.9380   -1.5020   52.6640 C.3    70  ILE70       0.0266
     48  CG1        6.6460   -2.8570   53.3080 C.3    70  ILE70       0.0019
     49  CG2        7.0350   -1.6430   51.1520 C.3    70  ILE70       0.0020
     50  CD1        5.1580   -3.1340   53.4160 C.3    70  ILE70       0.0001
     51  N          7.4090    1.5540   53.2070 N.am   71  GLY71      -0.1942
     52  CA         6.9100    2.7650   53.8530 C.3    71  GLY71       0.2014
     53  C          8.0160    3.4790   54.6090 C.2    71  GLY71       0.2639
     54  O          7.7290    4.2690   55.5110 O.2    71  GLY71      -0.2714
     55  N          9.2640    3.2130   54.2490 N.am   72  GLU72      -0.1963
     56  CA        10.4240    3.7800   54.9170 C.3    72  GLU72       0.1733
     57  C         10.8570    5.1400   54.3950 C.2    72  GLU72       0.2616
     58  O         11.6280    5.8270   55.0780 O.2    72  GLU72      -0.2715
     59  CB        11.6280    2.8160   54.7740 C.3    72  GLU72       0.0429
     60  CG        12.4030    2.9980   53.4750 C.3    72  GLU72       0.1163
     61  CD        11.7920    2.2540   52.3070 C.2    72  GLU72       0.3649
     62  OE1       12.4910    1.9550   51.3220 O.co2  72  GLU72      -0.2457
     63  OE2       10.5880    1.9370   52.3420 O.co2  72  GLU72      -0.2457
     64  N         10.4190    5.5710   53.2090 N.am   73  LEU73      -0.1963
     65  CA        11.0100    6.7730   52.6130 C.3    73  LEU73       0.1728
     66  C         10.6520    8.0840   53.2960 C.2    73  LEU73       0.2616
     67  O         11.3870    9.0720   53.1400 O.2    73  LEU73      -0.2715
     68  CB        10.5980    6.8320   51.1290 C.3    73  LEU73       0.0311
     69  CG        11.1200    5.6740   50.2700 C.3    73  LEU73       0.0022
     70  CD1       10.8880    5.9380   48.7910 C.3    73  LEU73       0.0001
     71  CD2       12.6010    5.4440   50.5640 C.3    73  LEU73       0.0001
     72  N          9.5460    8.1610   54.0350 N.am   74  GLY74      -0.1955
     73  CA         9.1620    9.4290   54.6530 C.3    74  GLY74       0.1869
     74  C          9.7600    9.5340   56.0390 C.2    74  GLY74       0.2309
     75  O          9.3990   10.3940   56.8420 O.2    74  GLY74      -0.2863
     76  N          4.8370   12.6440   51.9310 N.3    81  GLU81      -0.1231
     77  CA         3.8060   11.8240   51.3120 C.3    81  GLU81       0.1699
     78  C          4.3970   10.4870   50.8770 C.2    81  GLU81       0.2592
     79  O          5.5850   10.4350   50.5280 O.2    81  GLU81      -0.2718
     80  CB         3.1960   12.5390   50.0990 C.3    81  GLU81       0.0402
     81  CG         2.1600   13.5920   50.4500 C.3    81  GLU81       0.1161
     82  CD         1.3810   14.1230   49.2610 C.2    81  GLU81       0.3649
     83  OE1        0.3700   14.8330   49.4790 O.co2  81  GLU81      -0.2457
     84  OE2        1.7820   13.8300   48.1110 O.co2  81  GLU81      -0.2457
     85  N          3.5500    9.4680   50.9010 N.am   82  ARG82      -0.1966
     86  CA         3.8960    8.1700   50.3210 C.3    82  ARG82       0.1729
     87  C          4.2490    8.3520   48.8530 C.2    82  ARG82       0.2617
     88  O          3.4760    8.9840   48.1290 O.2    82  ARG82      -0.2715
     89  CB         2.7410    7.1860   50.4850 C.3    82  ARG82       0.0348
     90  CG         2.3370    6.9660   51.9380 C.3    82  ARG82       0.0492
     91  CD         3.5080    6.4420   52.7640 C.3    82  ARG82       0.2205
     92  NE         3.0360    5.8720   54.0240 N.pl3  82  ARG82      -0.0865
     93  CZ         3.7690    5.3280   54.9790 C.cat  82  ARG82       0.5346
     94  NH1        5.0920    5.2680   54.8310 N.pl3  82  ARG82       0.1354
     95  NH2        3.1940    4.8490   56.0790 N.pl3  82  ARG82       0.1354
     96  N          5.3850    7.8410   48.4080 N.am   83  SER83      -0.1936
     97  CA         5.8840    8.1050   47.0610 C.3    83  SER83       0.2055
     98  C          5.2900    7.1830   46.0100 C.2    83  SER83       0.2642
     99  O          5.5360    7.3190   44.8130 O.2    83  SER83      -0.2714
    100  CB         7.4190    7.9560   47.0420 C.3    83  SER83       0.2130
    101  OG         7.6990    6.6200   47.4580 O.3    83  SER83      -0.2179
    102  N          4.4940    6.2040   46.4130 N.am   84  ALA84      -0.1977
    103  CA         3.9730    5.2160   45.4770 C.3    84  ALA84       0.1597
    104  C          2.8720    4.4160   46.1560 C.2    84  ALA84       0.2287
    105  O          2.7380    4.5610   47.3740 O.2    84  ALA84      -0.2864
    106  CB         5.0880    4.2950   45.0230 C.3    84  ALA84       0.0319
    107  N          1.5200    0.6080   47.2900 N.3    86  VAL86      -0.1245
    108  CA         2.0330   -0.7230   47.5830 C.3    86  VAL86       0.1561
    109  C          0.8420   -1.6610   47.7870 C.2    86  VAL86       0.2260
    110  O         -0.0220   -1.4210   48.6350 O.2    86  VAL86      -0.2867
    111  CB         2.9370   -0.7420   48.8160 C.3    86  VAL86       0.0252
    112  CG1        3.4790   -2.1480   49.0410 C.3    86  VAL86       0.0019
    113  CG2        4.0830    0.2590   48.6950 C.3    86  VAL86       0.0019
    114  N          6.6400    6.0280   62.8600 N.3    99  TYR99      -0.1241
    115  CA         7.9560    6.6250   62.6450 C.3    99  TYR99       0.1605
    116  C          8.6250    7.0980   63.9290 C.2    99  TYR99       0.2264
    117  O          9.8140    6.8750   64.1790 O.2    99  TYR99      -0.2867
    118  CB         7.7350    7.7920   61.6720 C.3    99  TYR99       0.0534
    119  CG         7.7150    7.4110   60.2090 C.ar   99  TYR99      -0.0201
    120  CD1        7.4890    8.4230   59.2740 C.ar   99  TYR99      -0.0009
    121  CD2        7.9180    6.1220   59.7470 C.ar   99  TYR99      -0.0009
    122  CE1        7.4640    8.1200   57.9320 C.ar   99  TYR99       0.0417
    123  CE2        7.9020    5.8210   58.3960 C.ar   99  TYR99       0.0417
    124  CZ         7.6740    6.8300   57.4890 C.ar   99  TYR99       0.1957
    125  OH         7.6430    6.5960   56.1270 O.3    99  TYR99      -0.2866
    126  N         17.9010   -0.9270   46.8090 N.3   123  ARG123     -0.1245
    127  CA        16.7730   -0.4980   45.9800 C.3   123  ARG123      0.1563
    128  C         17.2590    0.4880   44.9240 C.2   123  ARG123      0.2260
    129  O         16.7780    0.4360   43.7910 O.2   123  ARG123     -0.2867
    130  CB        15.6500    0.0890   46.8480 C.3   123  ARG123      0.0307
    131  CG        14.8750   -1.0340   47.5390 C.3   123  ARG123      0.0489
    132  CD        14.0450   -0.5600   48.7200 C.3   123  ARG123      0.2205
    133  NE        13.7610   -1.6920   49.6080 N.pl3 123  ARG123     -0.0865
    134  CZ        12.8380   -1.6980   50.5620 C.cat 123  ARG123      0.5346
    135  NH1       12.0720   -0.6290   50.7780 N.pl3 123  ARG123      0.1354
    136  NH2       12.6860   -2.7950   51.2920 N.pl3 123  ARG123      0.1354
    137  N         19.1390   -1.4170   42.2480 N.3   126  VAL126     -0.1231
    138  CA        18.1920   -2.0930   41.3700 C.3   126  VAL126      0.1692
    139  C         17.4690   -1.1140   40.4540 C.2   126  VAL126      0.2591
    140  O         17.2950   -1.4030   39.2750 O.2   126  VAL126     -0.2718
    141  CB        17.1730   -2.8680   42.2250 C.3   126  VAL126      0.0266
    142  CG1       15.9750   -3.3070   41.3940 C.3   126  VAL126      0.0020
    143  CG2       17.8630   -4.0640   42.8580 C.3   126  VAL126      0.0020
    144  N         17.0270    0.0250   40.9530 N.am  127  LEU127     -0.1980
    145  CA        16.4510    1.1160   40.1950 C.3   127  LEU127      0.1596
    146  C         17.3480    1.6200   39.0640 C.2   127  LEU127      0.2287
    147  O         16.8310    2.0330   38.0190 O.2   127  LEU127     -0.2864
    148  CB        16.1750    2.3250   41.1080 C.3   127  LEU127      0.0297
    149  CG        14.8190    3.0140   40.9390 C.3   127  LEU127      0.0022
    150  CD1       14.6830    4.1780   41.9090 C.3   127  LEU127      0.0001
    151  CD2       14.6500    3.4640   39.5010 C.3   127  LEU127      0.0001
@<TRIPOS>BOND
     1   147   146    2
     2   146   145    1
     3   140   139    2
     4   151   149    1
     5    28    26    1
     6   145   144    1
     7   145   148    1
     8    21    22    1
     9   139   144   am
    10   139   138    1
    11    22    23    1
    12    22    25    1
    13    24    23    2
    14   149   148    1
    15   149   150    1
    16    23    29   am
    17    26    25    1
    18    26    27    1
    19   138   141    1
    20   138   137    1
    21   142   141    1
    22    29    30    1
    23    17    16    2
    24   141   143    1
    25    30    31    1
    26    30    33    1
    27    31    32    2
    28    16    15    1
    29    33    34    1
    30   129   128    2
    31    14    15    1
    32    15    18    1
    33    99    98    2
    34    18    19    1
    35    18    20    1
    36   128   127    1
    37   106   103    1
    38   103   104    1
    39   103   102    1
    40   127   126    1
    41   127   130    1
    42    98   102   am
    43    98    97    1
    44   104   105    2
    45    35    36    1
    46   130   131    1
    47   100    97    1
    48   100   101    1
    49    97    96    1
    50   107   108    1
    51   131   132    1
    52   108   109    1
    53   108   111    1
    54    36    37    1
    55    36    39    1
    56   109   110    2
    57    42    40    1
    58    38    37    2
    59    40    39    1
    60    40    41    1
    61    84    82   ar
    62    88    87    2
    63    96    87   am
    64   113   111    1
    65   132   133    1
    66     4     3    2
    67    70    69    1
    68   111   112    1
    69    87    86    1
    70    82    83   ar
    71    82    81    1
    72   133   134    2
    73     3     2    1
    74    80    81    1
    75    80    77    1
    76    69    71    1
    77    69    68    1
    78    86    89    1
    79    86    85    1
    80    89    90    1
    81    79    78    2
    82   134   135    1
    83   134   136    1
    84    78    85   am
    85    78    77    1
    86     7     5    1
    87     1     2    1
    88     2     5    1
    89     5     6    1
    90    68    65    1
    91    49    47    1
    92    77    76    1
    93    62    61   ar
    94    90    91    1
    95    61    63   ar
    96    61    60    1
    97     8     6    1
    98    65    64    1
    99    65    66    1
   100    47    44    1
   101    47    48    1
   102    91    92    1
   103    67    66    2
   104    44    45    1
   105    44    43    1
   106    51    52    1
   107    51    45   am
   108    64    57   am
   109    66    72   am
   110    48    50    1
   111    60    59    1
   112    52    53    1
   113    45    46    2
   114    92    93    2
   115    72    73    1
   116    55    53   am
   117    55    56    1
   118    57    56    1
   119    57    58    2
   120    53    54    2
   121    73    74    1
   122    59    56    1
   123    13    10    1
   124    94    93    1
   125    93    95    1
   126     9    10    1
   127    10    11    1
   128    74    75    2
   129   125   124    1
   130    11    12    2
   131   124   122   ar
   132   124   123   ar
   133   122   120   ar
   134   123   121   ar
   135   120   119   ar
   136   121   119   ar
   137   119   118    1
   138   118   115    1
   139   115   114    1
   140   115   116    1
   141   116   117    2
