@<TRIPOS>MOLECULE
tmp/1hw7A00.pdb
 117 113 0 0 0
SMALL
GASTEIGER

@<TRIPOS>ATOM
      1  N          3.6620   51.2660   27.6560 N.3    52  LEU52      -0.1245
      2  CA         3.1220   50.0760   26.9420 C.3    52  LEU52       0.1561
      3  C          2.3810   49.0970   27.8110 C.2    52  LEU52       0.2260
      4  O          1.3600   48.5100   27.3930 O.2    52  LEU52      -0.2867
      5  CB         4.2060   49.2740   26.2280 C.3    52  LEU52       0.0270
      6  CG         4.9500   50.0400   25.1640 C.3    52  LEU52       0.0019
      7  CD1        5.8730   49.0760   24.3790 C.3    52  LEU52       0.0001
      8  CD2        3.9370   50.7160   24.2730 C.3    52  LEU52       0.0001
      9  N         -1.2240   49.5170   28.1090 N.3    55  THR55      -0.1203
     10  CA        -2.0850   49.2100   26.9860 C.3    55  THR55       0.1994
     11  C         -2.4590   47.7350   26.9680 C.2    55  THR55       0.2618
     12  O         -3.3300   47.3380   26.1920 O.2    55  THR55      -0.2717
     13  CB        -1.4130   49.5480   25.6450 C.3    55  THR55       0.1784
     14  OG1       -0.3200   48.6400   25.4210 O.3    55  THR55      -0.2211
     15  CG2       -0.9100   50.9920   25.6410 C.3    55  THR55       0.0376
     16  N         -1.8080   46.9310   27.8160 N.am   56  LEU56      -0.1965
     17  CA        -2.0700   45.4850   27.8900 C.3    56  LEU56       0.1728
     18  C         -3.5320   45.1600   28.1550 C.2    56  LEU56       0.2616
     19  O         -4.1520   45.7610   29.0310 O.2    56  LEU56      -0.2715
     20  CB        -1.2080   44.8250   28.9760 C.3    56  LEU56       0.0311
     21  CG         0.2600   44.5350   28.6580 C.3    56  LEU56       0.0022
     22  CD1        0.9780   44.0120   29.8930 C.3    56  LEU56       0.0001
     23  CD2        0.3300   43.5090   27.5350 C.3    56  LEU56       0.0001
     24  N         -4.0810   44.1960   27.4120 N.am   57  LYS57      -0.1963
     25  CA        -5.4830   43.8180   27.5900 C.3    57  LYS57       0.1728
     26  C         -5.6080   42.6760   28.5770 C.2    57  LYS57       0.2616
     27  O         -6.6550   42.4870   29.1940 O.2    57  LYS57      -0.2715
     28  CB        -6.0980   43.3950   26.2580 C.3    57  LYS57       0.0311
     29  CG        -6.2040   44.5090   25.2450 C.3    57  LYS57       0.0038
     30  CD        -6.4890   43.9680   23.8390 C.3    57  LYS57       0.0206
     31  CE        -7.9310   43.5120   23.6490 C.3    57  LYS57       0.1093
     32  NZ        -8.1200   42.9530   22.2720 N.3    57  LYS57      -0.1314
     33  N         -4.5290   41.9290   28.7520 N.am   58  PHE58      -0.1974
     34  CA        -4.5460   40.7740   29.6470 C.3    58  PHE58       0.1639
     35  C         -3.4190   40.9260   30.6360 C.2    58  PHE58       0.2290
     36  O         -2.5330   41.7370   30.4160 O.2    58  PHE58      -0.2864
     37  CB        -4.3220   39.5060   28.8100 C.3    58  PHE58       0.0560
     38  CG        -3.1680   39.6260   27.8470 C.ar   58  PHE58      -0.0200
     39  CD1       -1.8420   39.5230   28.2950 C.ar   58  PHE58      -0.0042
     40  CD2       -3.3930   39.8890   26.5020 C.ar   58  PHE58      -0.0042
     41  CE1       -0.7520   39.6830   27.4090 C.ar   58  PHE58      -0.0003
     42  CE2       -2.3100   40.0490   25.6070 C.ar   58  PHE58      -0.0003
     43  CZ        -0.9970   39.9480   26.0560 C.ar   58  PHE58      -0.0000
     44  N          5.8480   42.7100   30.1190 N.3    62  ILE62      -0.1245
     45  CA         6.3770   43.1590   28.8350 C.3    62  ILE62       0.1561
     46  C          7.7830   43.6230   29.0720 C.2    62  ILE62       0.2260
     47  O          8.0940   44.2170   30.1180 O.2    62  ILE62      -0.2867
     48  CB         5.5970   44.3650   28.2360 C.3    62  ILE62       0.0252
     49  CG1        4.1680   43.9560   27.8750 C.3    62  ILE62       0.0019
     50  CG2        6.2530   44.8480   26.9400 C.3    62  ILE62       0.0019
     51  CD1        3.5790   44.7830   26.6890 C.3    62  ILE62       0.0001
     52  N         10.8130   43.4090   21.6630 N.3   112  ILE112     -0.1245
     53  CA         9.7230   43.5180   22.6360 C.3   112  ILE112      0.1561
     54  C          9.1680   42.1480   22.8560 C.2   112  ILE112      0.2260
     55  O          8.7090   41.4940   21.9180 O.2   112  ILE112     -0.2867
     56  CB         8.6370   44.4450   22.1060 C.3   112  ILE112      0.0252
     57  CG1        9.2640   45.8250   21.9070 C.3   112  ILE112      0.0019
     58  CG2        7.4280   44.5100   23.0970 C.3   112  ILE112      0.0019
     59  CD1        8.3090   46.8520   21.4830 C.3   112  ILE112      0.0001
     60  N          6.3870   39.8630   24.9010 N.3   114  ILE114     -0.1245
     61  CA         5.1690   39.9450   25.6640 C.3   114  ILE114      0.1561
     62  C          4.7960   38.5810   26.1480 C.2   114  ILE114      0.2260
     63  O          4.4710   37.6940   25.3380 O.2   114  ILE114     -0.2867
     64  CB         4.0460   40.4760   24.8130 C.3   114  ILE114      0.0252
     65  CG1        4.4040   41.8710   24.3020 C.3   114  ILE114      0.0019
     66  CG2        2.7550   40.5420   25.6240 C.3   114  ILE114      0.0019
     67  CD1        3.2200   42.5630   23.7290 C.3   114  ILE114      0.0001
     68  N          5.3900   35.9190   23.1390 N.3   122  TYR122     -0.1241
     69  CA         5.4440   36.5050   21.8250 C.3   122  TYR122      0.1605
     70  C          6.6340   37.4860   21.8060 C.2   122  TYR122      0.2264
     71  O          6.8640   38.2090   22.7690 O.2   122  TYR122     -0.2867
     72  CB         4.1630   37.2960   21.5310 C.3   122  TYR122      0.0534
     73  CG         4.3870   38.4760   20.5650 C.ar  122  TYR122     -0.0201
     74  CD1        4.4370   38.2960   19.1770 C.ar  122  TYR122     -0.0009
     75  CD2        4.6120   39.7740   21.0560 C.ar  122  TYR122     -0.0009
     76  CE1        4.7070   39.3880   18.3080 C.ar  122  TYR122      0.0417
     77  CE2        4.8850   40.8400   20.1790 C.ar  122  TYR122      0.0417
     78  CZ         4.9250   40.6360   18.8360 C.ar  122  TYR122      0.1957
     79  OH         5.1500   41.7080   17.9770 O.3   122  TYR122     -0.2866
     80  N          8.3300   50.1660   15.1560 N.3   140  TYR140     -0.1227
     81  CA         7.7620   48.8670   15.5500 C.3   140  TYR140      0.1736
     82  C          6.2110   48.8660   15.4450 C.2   140  TYR140      0.2595
     83  O          5.6280   47.9790   14.8420 O.2   140  TYR140     -0.2718
     84  CB         8.1610   48.5470   16.9890 C.3   140  TYR140      0.0548
     85  CG         7.4890   47.3480   17.6060 C.ar  140  TYR140     -0.0200
     86  CD1        8.0090   46.0500   17.4500 C.ar  140  TYR140     -0.0009
     87  CD2        6.3290   47.4980   18.3520 C.ar  140  TYR140     -0.0009
     88  CE1        7.3590   44.9190   18.0330 C.ar  140  TYR140      0.0417
     89  CE2        5.6810   46.3990   18.9280 C.ar  140  TYR140      0.0417
     90  CZ         6.1960   45.1130   18.7560 C.ar  140  TYR140      0.1957
     91  OH         5.5060   44.0280   19.2730 O.3   140  TYR140     -0.2866
     92  N          5.5470   49.8370   16.0650 N.am  141  PHE141     -0.1976
     93  CA         4.0690   49.9270   16.0450 C.3   141  PHE141      0.1639
     94  C          3.4820   50.0980   14.6620 C.2   141  PHE141      0.2290
     95  O          2.4670   49.5470   14.3450 O.2   141  PHE141     -0.2864
     96  CB         3.5950   51.1220   16.8680 C.3   141  PHE141      0.0560
     97  CG         3.6040   50.8730   18.3320 C.ar  141  PHE141     -0.0200
     98  CD1        4.4970   51.5360   19.1570 C.ar  141  PHE141     -0.0042
     99  CD2        2.7240   49.9490   18.8880 C.ar  141  PHE141     -0.0042
    100  CE1        4.5240   51.2800   20.5410 C.ar  141  PHE141     -0.0003
    101  CE2        2.7260   49.6820   20.2310 C.ar  141  PHE141     -0.0003
    102  CZ         3.6400   50.3530   21.0770 C.ar  141  PHE141     -0.0000
    103  N          3.5000   46.6620   13.1800 N.3   144  SER144     -0.1202
    104  CA         2.8810   45.5660   13.8700 C.3   144  SER144      0.2020
    105  C          1.5160   45.8710   14.4570 C.2   144  SER144      0.2618
    106  O          0.8080   44.9490   14.8970 O.2   144  SER144     -0.2717
    107  CB         3.8220   45.1300   14.9750 C.3   144  SER144      0.2103
    108  OG         3.6820   45.9730   16.1260 O.3   144  SER144     -0.2182
    109  N          1.1170   47.1390   14.4670 N.am  145  GLU145     -0.1979
    110  CA        -0.1860   47.4610   15.0760 C.3   145  GLU145      0.1602
    111  C         -1.0260   48.3350   14.1460 C.2   145  GLU145      0.2287
    112  O         -0.5560   49.3620   13.6270 O.2   145  GLU145     -0.2864
    113  CB         0.0630   48.1350   16.4360 C.3   145  GLU145      0.0415
    114  CG        -1.1630   48.7280   17.1880 C.3   145  GLU145      0.1163
    115  CD        -2.3100   47.7720   17.3730 C.2   145  GLU145      0.3649
    116  OE1       -3.3300   47.9250   16.6790 O.co2 145  GLU145     -0.2457
    117  OE2       -2.2110   46.8620   18.2280 O.co2 145  GLU145     -0.2457
@<TRIPOS>BOND
     1   103   104    1
     2   112   111    2
     3   104   105    1
     4   104   107    1
     5   111   110    1
     6    95    94    2
     7   105   109   am
     8   105   106    2
     9   109   110    1
    10    94    93    1
    11    83    82    2
    12   107   108    1
    13   110   113    1
    14    80    81    1
    15    82    81    1
    16    82    92   am
    17    81    84    1
    18    93    92    1
    19    93    96    1
    20   113   114    1
    21   116   115   ar
    22    96    97    1
    23    84    85    1
    24   114   115    1
    25   115   117   ar
    26    86    85   ar
    27    86    88   ar
    28    85    87   ar
    29    79    78    1
    30    88    90   ar
    31    76    78   ar
    32    76    74   ar
    33    97    99   ar
    34    97    98   ar
    35    87    89   ar
    36    90    89   ar
    37    90    91    1
    38    78    77   ar
    39    99   101   ar
    40    98   100   ar
    41    74    73   ar
    42    77    75   ar
    43   101   102   ar
    44   100   102   ar
    45    73    75   ar
    46    73    72    1
    47    59    57    1
    48    72    69    1
    49    52    53    1
    50    70    69    1
    51    70    71    2
    52    69    68    1
    53    57    56    1
    54    55    54    2
    55    56    53    1
    56    56    58    1
    57    32    31    1
    58    53    54    1
    59    31    30    1
    60    67    65    1
    61    30    29    1
    62     8     6    1
    63    65    64    1
    64     7     6    1
    65    64    66    1
    66    64    61    1
    67    60    61    1
    68     6     5    1
    69    29    28    1
    70    63    62    2
    71    14    13    1
    72    42    43   ar
    73    42    40   ar
    74    15    13    1
    75    13    10    1
    76    61    62    1
    77    43    41   ar
    78    12    11    2
    79     5     2    1
    80    28    25    1
    81    40    38   ar
    82    51    49    1
    83    50    48    1
    84     2     1    1
    85     2     3    1
    86    11    10    1
    87    11    16   am
    88    10     9    1
    89     4     3    2
    90    41    39   ar
    91    24    25    1
    92    24    18   am
    93    23    21    1
    94    25    26    1
    95    16    17    1
    96    38    39   ar
    97    38    37    1
    98    49    48    1
    99    17    18    1
   100    17    20    1
   101    18    19    2
   102    48    45    1
   103    26    33   am
   104    26    27    2
   105    21    20    1
   106    21    22    1
   107    33    34    1
   108    37    34    1
   109    45    46    1
   110    45    44    1
   111    46    47    2
   112    34    35    1
   113    36    35    2
