@<TRIPOS>MOLECULE
tmp/1hw8A01.pdb
 95 87 0 0 0
SMALL
GASTEIGER

@<TRIPOS>ATOM
      1  N         29.7250  -19.6990   20.5890 N.3   133  ARG133     -0.1245
      2  CA        28.2920  -19.7270   20.8530 C.3   133  ARG133      0.1563
      3  C         28.1400  -18.7180   21.9860 C.2   133  ARG133      0.2260
      4  O         28.9300  -18.7380   22.9560 O.2   133  ARG133     -0.2867
      5  CB        27.8150  -21.1250   21.2640 C.3   133  ARG133      0.0307
      6  CG        26.3290  -21.1910   21.4570 C.3   133  ARG133      0.0489
      7  CD        25.6250  -20.5620   20.2530 C.3   133  ARG133      0.2205
      8  NE        25.1490  -21.5530   19.3030 N.pl3 133  ARG133     -0.0865
      9  CZ        24.6660  -21.2740   18.0900 C.cat 133  ARG133      0.5346
     10  NH1       24.6040  -20.0190   17.6340 N.pl3 133  ARG133      0.1354
     11  NH2       24.1610  -22.2590   17.3570 N.pl3 133  ARG133      0.1354
     12  N         29.4660  -25.8020   15.0550 N.3   200  MET200     -0.1230
     13  CA        28.2590  -25.2680   15.6490 C.3   200  MET200      0.1702
     14  C         27.4940  -26.2430   16.5550 C.2   200  MET200      0.2592
     15  O         27.2170  -25.9100   17.7120 O.2   200  MET200     -0.2718
     16  CB        27.3660  -24.6730   14.5720 C.3   200  MET200      0.0401
     17  CG        27.8730  -23.3190   14.1110 C.3   200  MET200      0.0596
     18  SD        27.7080  -22.1170   15.4330 S.3   200  MET200     -0.1393
     19  CE        26.0650  -21.7410   15.2230 C.3   200  MET200      0.0692
     20  N         27.1790  -27.4380   16.0560 N.am  201  ASN201     -0.1974
     21  CA        26.4470  -28.4260   16.8580 C.3   201  ASN201      0.1688
     22  C         27.2320  -28.8490   18.1000 C.2   201  ASN201      0.2292
     23  O         26.6940  -28.9020   19.2150 O.2   201  ASN201     -0.2864
     24  CB        26.1120  -29.6600   16.0260 C.3   201  ASN201      0.1181
     25  CG        25.1920  -29.3400   14.8530 C.2   201  ASN201      0.2629
     26  OD1       24.4630  -28.3270   14.8580 O.2   201  ASN201     -0.2716
     27  ND2       25.2170  -30.2050   13.8360 N.am  201  ASN201     -0.0877
     28  N         27.4330  -25.9830   20.5850 N.3   204  SER204     -0.1217
     29  CA        26.1120  -25.7570   21.1850 C.3   204  SER204      0.1889
     30  C         25.8350  -26.7990   22.2690 C.2   204  SER204      0.2288
     31  O         25.3370  -26.4650   23.3420 O.2   204  SER204     -0.2866
     32  CB        24.9980  -25.8050   20.1370 C.3   204  SER204      0.2089
     33  OG        25.0930  -24.7080   19.2460 O.3   204  SER204     -0.2183
     34  N         25.3900  -26.0700   26.3570 N.3   208  GLU208     -0.1245
     35  CA        24.2270  -26.5070   27.1310 C.3   208  GLU208      0.1567
     36  C         24.6700  -27.2110   28.4270 C.2   208  GLU208      0.2260
     37  O         24.1270  -26.9460   29.4890 O.2   208  GLU208     -0.2867
     38  CB        23.3480  -27.4420   26.2880 C.3   208  GLU208      0.0388
     39  CG        22.7560  -26.7940   25.0260 C.3   208  GLU208      0.1160
     40  CD        22.0310  -27.7980   24.1090 C.2   208  GLU208      0.3649
     41  OE1       22.1460  -29.0410   24.3270 O.co2 208  GLU208     -0.2457
     42  OE2       21.3480  -27.3320   23.1580 O.co2 208  GLU208     -0.2457
     43  N         20.0160  -20.3420   24.2150 N.3   226  VAL226     -0.1231
     44  CA        21.3560  -20.8890   24.0060 C.3   226  VAL226      0.1692
     45  C         22.1690  -20.0070   23.0650 C.2   226  VAL226      0.2592
     46  O         23.4110  -20.0850   23.0280 O.2   226  VAL226     -0.2718
     47  CB        21.3780  -22.3780   23.5600 C.3   226  VAL226      0.0266
     48  CG1       21.0050  -22.5170   22.0890 C.3   226  VAL226      0.0020
     49  CG2       22.7650  -22.9650   23.8260 C.3   226  VAL226      0.0020
     50  N         21.4620  -19.2100   22.2670 N.am  227  SER227     -0.1952
     51  CA        22.1030  -18.2170   21.4210 C.3   227  SER227      0.1924
     52  C         21.4240  -16.8840   21.6980 C.2   227  SER227      0.2314
     53  O         20.2440  -16.7210   21.4070 O.2   227  SER227     -0.2863
     54  CB        21.9890  -18.5040   19.9300 C.3   227  SER227      0.2116
     55  OG        22.4800  -17.3460   19.2400 O.3   227  SER227     -0.2180
     56  N         22.6190  -14.0950   20.4140 N.3   229  ASN229     -0.1240
     57  CA        23.2170  -13.2810   19.3530 C.3   229  ASN229      0.1653
     58  C         24.5980  -12.7170   19.6790 C.2   229  ASN229      0.2266
     59  O         25.1050  -11.8250   18.9790 O.2   229  ASN229     -0.2867
     60  CB        22.2750  -12.1450   18.8690 C.3   229  ASN229      0.1155
     61  CG        21.2390  -12.6400   17.8820 C.2   229  ASN229      0.2627
     62  OD1       21.1970  -13.8320   17.5900 O.2   229  ASN229     -0.2716
     63  ND2       20.4210  -11.7260   17.3210 N.am  229  ASN229     -0.0877
     64  N         27.2830  -14.6360   19.6740 N.3   231  CYS231     -0.1235
     65  CA        28.2610  -15.5450   19.0750 C.3   231  CYS231      0.1677
     66  C         29.3280  -14.9110   18.1550 C.2   231  CYS231      0.2270
     67  O         30.5160  -15.0720   18.4350 O.2   231  CYS231     -0.2867
     68  CB        27.5640  -16.7270   18.3530 C.3   231  CYS231      0.0956
     69  SG        25.9520  -17.2170   19.0650 S.3   231  CYS231     -0.0801
     70  N         26.3750  -15.5830   15.1620 N.3   233  ASP233     -0.1225
     71  CA        26.2060  -16.4680   14.0060 C.3   233  ASP233      0.1805
     72  C         25.2530  -15.9420   12.9190 C.2   233  ASP233      0.2598
     73  O         24.0870  -15.6470   13.1970 O.2   233  ASP233     -0.2718
     74  CB        25.7350  -17.8540   14.4920 C.3   233  ASP233      0.1424
     75  CG        25.8400  -18.9350   13.4140 C.2   233  ASP233      0.3668
     76  OD1       26.9050  -19.0560   12.7470 O.co2 233  ASP233     -0.2456
     77  OD2       24.8580  -19.6890   13.2570 O.co2 233  ASP233     -0.2456
     78  N         25.7830  -15.8000   11.7080 N.am  234  LYS234     -0.1966
     79  CA        24.9990  -15.3780   10.5390 C.3   234  LYS234      0.1728
     80  C         24.3780  -13.9720   10.5180 C.2   234  LYS234      0.2616
     81  O         23.4040  -13.7410    9.8200 O.2   234  LYS234     -0.2715
     82  CB        23.9380  -16.4380   10.2380 C.3   234  LYS234      0.0311
     83  CG        24.5700  -17.7450    9.8210 C.3   234  LYS234      0.0038
     84  CD        23.5640  -18.8670    9.8000 C.3   234  LYS234      0.0206
     85  CE        24.2490  -20.2050    9.5180 C.3   234  LYS234      0.1093
     86  NZ        23.2650  -21.3130    9.5570 N.3   234  LYS234     -0.1314
     87  N         24.9380  -13.0600   11.3120 N.am  235  LYS235     -0.1977
     88  CA        24.5270  -11.6560   11.3520 C.3   235  LYS235      0.1596
     89  C         25.8260  -10.8740   11.4430 C.2   235  LYS235      0.2287
     90  O         26.7930  -11.3590   12.0300 O.2   235  LYS235     -0.2864
     91  CB        23.6890  -11.3300   12.6070 C.3   235  LYS235      0.0298
     92  CG        22.1920  -11.6450   12.4880 C.3   235  LYS235      0.0038
     93  CD        21.8550  -13.0920   12.8900 C.3   235  LYS235      0.0206
     94  CE        22.1910  -13.3410   14.3720 C.3   235  LYS235      0.1093
     95  NZ        22.0240  -14.7700   14.7320 N.3   235  LYS235     -0.1314
@<TRIPOS>BOND
     1    85    86    1
     2    85    84    1
     3    84    83    1
     4    81    80    2
     5    83    82    1
     6    82    79    1
     7    80    79    1
     8    80    87   am
     9    79    78    1
    10    87    88    1
    11    88    89    1
    12    88    91    1
    13    89    90    2
    14    78    72   am
    15    92    91    1
    16    92    93    1
    17    76    75   ar
    18    93    94    1
    19    72    73    2
    20    72    71    1
    21    77    75   ar
    22    75    74    1
    23    27    25   am
    24    71    74    1
    25    71    70    1
    26    17    16    1
    27    17    18    1
    28    94    95    1
    29    16    13    1
    30    25    26    2
    31    25    24    1
    32    12    13    1
    33    19    18    1
    34    13    14    1
    35    24    21    1
    36    20    14   am
    37    20    21    1
    38    14    15    2
    39    21    22    1
    40    63    61   am
    41    11     9    1
    42    62    61    2
    43    10     9    1
    44    61    60    1
    45     9     8    2
    46    22    23    2
    47    66    67    2
    48    66    65    1
    49    68    69    1
    50    68    65    1
    51    60    57    1
    52    59    58    2
    53    65    64    1
    54    55    54    1
    55    33    32    1
    56     8     7    1
    57    57    58    1
    58    57    56    1
    59    54    51    1
    60    32    29    1
    61     7     6    1
    62    28    29    1
    63     1     2    1
    64     2     5    1
    65     2     3    1
    66    29    30    1
    67     5     6    1
    68    53    52    2
    69    51    52    1
    70    51    50    1
    71     3     4    2
    72    48    47    1
    73    50    45   am
    74    30    31    2
    75    46    45    2
    76    45    44    1
    77    42    40   ar
    78    47    49    1
    79    47    44    1
    80    44    43    1
    81    40    41   ar
    82    40    39    1
    83    39    38    1
    84    38    35    1
    85    34    35    1
    86    35    36    1
    87    36    37    2
