@<TRIPOS>MOLECULE
tmp/1hw8A00.pdb
 96 90 0 0 0
SMALL
GASTEIGER

@<TRIPOS>ATOM
      1  N         27.6100  -16.4530  -11.5010 N.3   102  GLU102     -0.1231
      2  CA        28.0790  -15.1120  -11.8630 C.3   102  GLU102      0.1699
      3  C         29.1770  -15.1260  -12.9290 C.2   102  GLU102      0.2593
      4  O         30.3070  -15.5740  -12.6810 O.2   102  GLU102     -0.2718
      5  CB        28.5820  -14.3350  -10.6500 C.3   102  GLU102      0.0402
      6  CG        29.2160  -13.0030  -11.0560 C.3   102  GLU102      0.1161
      7  CD        29.3540  -12.0180   -9.9220 C.2   102  GLU102      0.3649
      8  OE1       29.6410  -12.4630   -8.7820 O.co2 102  GLU102     -0.2457
      9  OE2       29.1860  -10.7990  -10.1830 O.co2 102  GLU102     -0.2457
     10  N         28.8570  -14.5830  -14.0980 N.am  103  GLY103     -0.1942
     11  CA        29.8210  -14.5450  -15.1880 C.3   103  GLY103      0.2014
     12  C         31.0810  -13.7600  -14.8500 C.2   103  GLY103      0.2639
     13  O         31.0190  -12.7820  -14.1060 O.2   103  GLY103     -0.2714
     14  N         32.2230  -14.2320  -15.3490 N.am  104  CYS104     -0.1953
     15  CA        33.5380  -13.6120  -15.1440 C.3   104  CYS104      0.1843
     16  C         34.2140  -13.8970  -13.8140 C.2   104  CYS104      0.2625
     17  O         35.4270  -13.7510  -13.7190 O.2   104  CYS104     -0.2714
     18  CB        33.4970  -12.0930  -15.3430 C.3   104  CYS104      0.0997
     19  SG        32.8070  -11.5680  -16.9240 S.3   104  CYS104     -0.0797
     20  N         33.4570  -14.3280  -12.7990 N.am  105  LEU105     -0.1977
     21  CA        34.0710  -14.5960  -11.4940 C.3   105  LEU105      0.1596
     22  C         35.2040  -15.6200  -11.5300 C.2   105  LEU105      0.2287
     23  O         36.3140  -15.3260  -11.0770 O.2   105  LEU105     -0.2864
     24  CB        33.0420  -14.9520  -10.4250 C.3   105  LEU105      0.0297
     25  CG        33.6070  -15.2740   -9.0330 C.3   105  LEU105      0.0022
     26  CD1       34.3700  -14.0680   -8.4070 C.3   105  LEU105      0.0001
     27  CD2       32.4350  -15.6620   -8.1670 C.3   105  LEU105      0.0001
     28  N         38.1510  -14.3300  -13.7230 N.3   108  SER108     -0.1217
     29  CA        38.8770  -13.2820  -13.0100 C.3   108  SER108      0.1889
     30  C         39.7620  -13.8510  -11.8840 C.2   108  SER108      0.2288
     31  O         40.9290  -13.4700  -11.7390 O.2   108  SER108     -0.2866
     32  CB        37.9110  -12.2570  -12.4340 C.3   108  SER108      0.2089
     33  OG        38.6470  -11.1590  -11.9260 O.3   108  SER108     -0.2183
     34  N         39.0560    3.0270   -2.3480 N.3   278  LYS278     -0.1245
     35  CA        37.8840    2.1610   -2.4330 C.3   278  LYS278      0.1561
     36  C         37.7340    1.3440   -1.1490 C.2   278  LYS278      0.2260
     37  O         36.7670    1.5180   -0.4070 O.2   278  LYS278     -0.2867
     38  CB        38.0330    1.1920   -3.6190 C.3   278  LYS278      0.0271
     39  CG        36.9770    0.0710   -3.7170 C.3   278  LYS278      0.0035
     40  CD        37.2260   -0.7870   -4.9600 C.3   278  LYS278      0.0206
     41  CE        36.2360   -1.9540   -5.0650 C.3   278  LYS278      0.1093
     42  NZ        34.8030   -1.5270   -5.1710 N.3   278  LYS278     -0.1314
     43  N         37.2150   -5.6410   -1.7550 N.3   294  ALA294     -0.1231
     44  CA        36.4530   -5.4520   -2.9920 C.3   294  ALA294      0.1694
     45  C         35.2970   -6.4510   -3.1610 C.2   294  ALA294      0.2592
     46  O         34.1500   -6.0390   -3.3060 O.2   294  ALA294     -0.2718
     47  CB        37.3960   -5.4850   -4.2020 C.3   294  ALA294      0.0304
     48  N         35.5810   -7.7520   -3.1120 N.am  295  HIS295     -0.1976
     49  CA        34.5260   -8.7510   -3.2650 C.3   295  HIS295      0.1656
     50  C         34.8360  -10.1190   -2.6460 C.2   295  HIS295      0.2291
     51  O         34.5140  -11.1640   -3.2250 O.2   295  HIS295     -0.2864
     52  CB        34.1130   -8.9080   -4.7430 C.3   295  HIS295      0.0771
     53  CG        35.1610   -9.5290   -5.6160 C.ar  295  HIS295      0.0820
     54  ND1       34.8450  -10.2750   -6.7390 N.ar  295  HIS295     -0.2267
     55  CD2       36.5150   -9.4640   -5.5730 C.ar  295  HIS295      0.1154
     56  CE1       35.9590  -10.6340   -7.3520 C.ar  295  HIS295      0.1986
     57  NE2       36.9870  -10.1560   -6.6660 N.ar  295  HIS295     -0.2212
     58  N         32.2360  -12.8580   -2.8850 N.3   298  ASN298     -0.1240
     59  CA        32.0270  -13.6400   -4.1040 C.3   298  ASN298      0.1653
     60  C         32.8070  -14.9510   -4.0370 C.2   298  ASN298      0.2266
     61  O         32.2800  -16.0190   -4.3780 O.2   298  ASN298     -0.2867
     62  CB        32.4730  -12.8610   -5.3560 C.3   298  ASN298      0.1155
     63  CG        31.3440  -12.0480   -5.9770 C.2   298  ASN298      0.2627
     64  OD1       30.1570  -12.3610   -5.7970 O.2   298  ASN298     -0.2716
     65  ND2       31.7080  -11.0270   -6.7490 N.am  298  ASN298     -0.0877
     66  N         40.0560   -8.1170   -9.5100 N.3   396  LEU396     -0.1245
     67  CA        38.9860   -7.1210   -9.5860 C.3   396  LEU396      0.1561
     68  C         39.5700   -5.7080   -9.4520 C.2   396  LEU396      0.2260
     69  O         39.1640   -4.7970  -10.1750 O.2   396  LEU396     -0.2867
     70  CB        37.9170   -7.3610   -8.5040 C.3   396  LEU396      0.0270
     71  CG        36.8140   -6.2990   -8.4390 C.3   396  LEU396      0.0019
     72  CD1       36.1550   -6.1580   -9.8220 C.3   396  LEU396      0.0001
     73  CD2       35.7620   -6.6570   -7.3700 C.3   396  LEU396      0.0001
     74  N         41.0540   -4.7180  -12.7140 N.3   399  ALA399     -0.1231
     75  CA        40.0110   -4.3860  -13.6760 C.3   399  ALA399      0.1694
     76  C         39.4560   -2.9780  -13.4080 C.2   399  ALA399      0.2591
     77  O         39.2290   -2.2120  -14.3470 O.2   399  ALA399     -0.2718
     78  CB        38.8790   -5.4300  -13.6260 C.3   399  ALA399      0.0304
     79  N         39.2160   -2.6530  -12.1360 N.am  400  LEU400     -0.1980
     80  CA        38.7100   -1.3400  -11.7600 C.3   400  LEU400      0.1596
     81  C         39.7140   -0.2250  -12.0970 C.2   400  LEU400      0.2287
     82  O         39.3300    0.8450  -12.5780 O.2   400  LEU400     -0.2864
     83  CB        38.3560   -1.3030  -10.2540 C.3   400  LEU400      0.0297
     84  CG        37.0590   -2.0470   -9.9030 C.3   400  LEU400      0.0022
     85  CD1       36.8940   -2.2330   -8.4050 C.3   400  LEU400      0.0001
     86  CD2       35.8800   -1.2500  -10.4430 C.3   400  LEU400      0.0001
     87  N         38.3450   -2.1280  -17.0660 N.3   404  HIS404     -0.1241
     88  CA        37.8960   -3.3090  -17.8100 C.3   404  HIS404      0.1621
     89  C         36.5990   -3.9420  -17.2500 C.2   404  HIS404      0.2264
     90  O         36.5940   -5.1660  -16.9620 O.2   404  HIS404     -0.2867
     91  CB        39.0310   -4.3470  -17.8980 C.3   404  HIS404      0.0745
     92  CG        40.1800   -3.9260  -18.7690 C.ar  404  HIS404      0.0817
     93  ND1       41.4630   -4.4070  -18.5960 N.ar  404  HIS404     -0.2268
     94  CD2       40.2370   -3.0800  -19.8300 C.ar  404  HIS404      0.1154
     95  CE1       42.2570   -3.8760  -19.5120 C.ar  404  HIS404      0.1986
     96  NE2       41.5390   -3.0670  -20.2720 N.ar  404  HIS404     -0.2212
@<TRIPOS>BOND
     1    96    94   ar
     2    96    95   ar
     3    94    92   ar
     4    95    93   ar
     5    92    93   ar
     6    92    91    1
     7    91    88    1
     8    88    89    1
     9    88    87    1
    10    89    90    2
    11    19    18    1
    12    14    15    1
    13    14    12   am
    14    18    15    1
    15    11    12    1
    16    11    10    1
    17    15    16    1
    18    12    13    2
    19    77    76    2
    20    10     3   am
    21    16    17    2
    22    16    20   am
    23    28    29    1
    24    75    78    1
    25    75    76    1
    26    75    74    1
    27    76    79   am
    28    29    32    1
    29    29    30    1
    30     3     4    2
    31     3     2    1
    32    20    21    1
    33    82    81    2
    34    32    33    1
    35    79    80    1
    36    81    80    1
    37    30    31    2
    38     2     1    1
    39     2     5    1
    40    80    83    1
    41    22    21    1
    42    22    23    2
    43    21    24    1
    44     6     5    1
    45     6     7    1
    46    86    84    1
    47    24    25    1
    48    83    84    1
    49     9     7   ar
    50    69    68    2
    51     7     8   ar
    52    84    85    1
    53    72    71    1
    54    67    66    1
    55    67    68    1
    56    67    70    1
    57    25    26    1
    58    25    27    1
    59    70    71    1
    60    71    73    1
    61    56    54   ar
    62    56    57   ar
    63    65    63   am
    64    54    53   ar
    65    57    55   ar
    66    63    64    2
    67    63    62    1
    68    53    55   ar
    69    53    52    1
    70    62    59    1
    71    42    41    1
    72    41    40    1
    73    40    39    1
    74    52    49    1
    75    61    60    2
    76    47    44    1
    77    59    60    1
    78    59    58    1
    79    39    38    1
    80    38    35    1
    81    46    45    2
    82    49    48    1
    83    49    50    1
    84    51    50    2
    85    45    48   am
    86    45    44    1
    87    44    43    1
    88    35    34    1
    89    35    36    1
    90    36    37    2
