@<TRIPOS>MOLECULE
tmp/1hwiD01.pdb
 87 79 0 0 0
SMALL
GASTEIGER

@<TRIPOS>ATOM
      1  N         47.3260    1.4460   25.3090 N.3   104  ARG104     -0.1245
      2  CA        48.0930    2.1530   24.2860 C.3   104  ARG104      0.1563
      3  C         48.2580    1.0840   23.2100 C.2   104  ARG104      0.2260
      4  O         48.5860   -0.0630   23.5200 O.2   104  ARG104     -0.2867
      5  CB        49.4450    2.6490   24.8240 C.3   104  ARG104      0.0307
      6  CG        50.2990    3.4310   23.8080 C.3   104  ARG104      0.0489
      7  CD        49.5130    4.5150   23.0520 C.3   104  ARG104      0.2205
      8  NE        49.5390    5.8320   23.6830 N.pl3 104  ARG104     -0.0865
      9  CZ        48.6590    6.8060   23.4440 C.cat 104  ARG104      0.5346
     10  NH1       47.6560    6.6270   22.5880 N.pl3 104  ARG104      0.1354
     11  NH2       48.8190    7.9970   24.0160 N.pl3 104  ARG104      0.1354
     12  N         47.6040    7.8280   30.6550 N.3   171  MET171     -0.1245
     13  CA        48.1330    7.9840   29.3040 C.3   171  MET171      0.1570
     14  C         49.6410    8.1870   29.1950 C.2   171  MET171      0.2261
     15  O         50.3040    7.4650   28.4580 O.2   171  MET171     -0.2867
     16  CB        47.3530    9.0580   28.5470 C.3   171  MET171      0.0387
     17  CG        45.9850    8.5780   28.0610 C.3   171  MET171      0.0595
     18  SD        46.0680    7.7290   26.4450 S.3   171  MET171     -0.1393
     19  CE        46.7650    6.1190   26.9380 C.3   171  MET171      0.0692
     20  N         52.1610    5.2890   28.1390 N.3   175  SER175     -0.1217
     21  CA        52.9020    5.5550   26.9020 C.3   175  SER175      0.1889
     22  C         54.4030    5.3370   27.1090 C.2   175  SER175      0.2288
     23  O         55.0740    4.7410   26.2600 O.2   175  SER175     -0.2866
     24  CB        52.6070    6.9660   26.3710 C.3   175  SER175      0.2089
     25  OG        51.2390    7.0780   25.9750 O.3   175  SER175     -0.2183
     26  N         56.8080    2.5410   25.2000 N.3   179  GLU179     -0.1245
     27  CA        58.0740    2.8520   24.5150 C.3   179  GLU179      0.1567
     28  C         59.1780    1.8920   24.9460 C.2   179  GLU179      0.2260
     29  O         59.8760    1.3270   24.1100 O.2   179  GLU179     -0.2867
     30  CB        58.5130    4.2960   24.7910 C.3   179  GLU179      0.0388
     31  CG        57.6430    5.3330   24.0880 C.3   179  GLU179      0.1160
     32  CD        57.8000    6.7480   24.6470 C.2   179  GLU179      0.3649
     33  OE1       58.9430    7.2640   24.6860 O.co2 179  GLU179     -0.2457
     34  OE2       56.7660    7.3460   25.0350 O.co2 179  GLU179     -0.2457
     35  N         54.1120    4.9360   18.1340 N.3   197  VAL197     -0.1231
     36  CA        53.8140    4.5030   19.4950 C.3   197  VAL197      0.1692
     37  C         52.2940    4.3500   19.6680 C.2   197  VAL197      0.2592
     38  O         51.8270    3.6120   20.5440 O.2   197  VAL197     -0.2718
     39  CB        54.4440    5.4580   20.5300 C.3   197  VAL197      0.0266
     40  CG1       54.0280    5.0800   21.9420 C.3   197  VAL197      0.0020
     41  CG2       55.9650    5.3670   20.4230 C.3   197  VAL197      0.0020
     42  N         51.5350    5.0760   18.8480 N.am  198  SER198     -0.1952
     43  CA        50.0830    4.9430   18.8340 C.3   198  SER198      0.1924
     44  C         49.6570    4.6900   17.3920 C.2   198  SER198      0.2314
     45  O         49.8550    5.5440   16.5220 O.2   198  SER198     -0.2863
     46  CB        49.3650    6.1800   19.3320 C.3   198  SER198      0.2116
     47  OG        47.9580    5.9890   19.1810 O.3   198  SER198     -0.2180
     48  N         46.4950    3.9090   16.6860 N.3   200  ASN200     -0.1240
     49  CA        45.0350    4.0330   16.7900 C.3   200  ASN200      0.1653
     50  C         44.3130    2.7610   17.2430 C.2   200  ASN200      0.2266
     51  O         43.0980    2.6530   17.1020 O.2   200  ASN200     -0.2867
     52  CB        44.4210    4.5470   15.4810 C.3   200  ASN200      0.1155
     53  CG        44.4120    6.0600   15.4030 C.2   200  ASN200      0.2627
     54  OD1       45.0360    6.7330   16.2300 O.2   200  ASN200     -0.2716
     55  ND2       43.6990    6.6080   14.4150 N.am  200  ASN200     -0.0877
     56  N         44.4700    1.8030   20.4060 N.3   202  CYS202     -0.1235
     57  CA        44.2760    1.9680   21.8510 C.3   202  CYS202      0.1677
     58  C         42.8210    1.6880   22.3290 C.2   202  CYS202      0.2270
     59  O         42.6270    0.8040   23.1620 O.2   202  CYS202     -0.2867
     60  CB        44.7620    3.3560   22.3110 C.3   202  CYS202      0.0956
     61  SG        46.1760    4.0390   21.3430 S.3   202  CYS202     -0.0801
     62  N         42.4200    5.8590   21.5560 N.3   204  ASP204     -0.1225
     63  CA        42.2920    7.0840   22.3310 C.3   204  ASP204      0.1805
     64  C         41.6340    8.2560   21.6090 C.2   204  ASP204      0.2598
     65  O         42.1100    8.6920   20.5590 O.2   204  ASP204     -0.2718
     66  CB        43.6850    7.4900   22.8540 C.3   204  ASP204      0.1424
     67  CG        43.6330    8.6500   23.8420 C.2   204  ASP204      0.3668
     68  OD1       42.8680    8.5910   24.8440 O.co2 204  ASP204     -0.2456
     69  OD2       44.3710    9.6280   23.6120 O.co2 204  ASP204     -0.2456
     70  N         40.5170    8.7320   22.1630 N.am  205  LYS205     -0.1966
     71  CA        39.7880    9.8830   21.6310 C.3   205  LYS205      0.1728
     72  C         39.1510    9.7630   20.2480 C.2   205  LYS205      0.2616
     73  O         38.9370   10.7680   19.5650 O.2   205  LYS205     -0.2715
     74  CB        40.6750   11.1310   21.7090 C.3   205  LYS205      0.0311
     75  CG        40.9540   11.5460   23.1460 C.3   205  LYS205      0.0038
     76  CD        42.0980   12.5330   23.2490 C.3   205  LYS205      0.0206
     77  CE        42.3330   12.9140   24.7100 C.3   205  LYS205      0.1093
     78  NZ        43.4640   13.8680   24.8770 N.3   205  LYS205     -0.1314
     79  N         38.8490    8.5360   19.8430 N.am  206  LYS206     -0.1977
     80  CA        38.1820    8.2580   18.5750 C.3   206  LYS206      0.1596
     81  C         37.1830    7.1530   18.8790 C.2   206  LYS206      0.2287
     82  O         37.4470    6.2990   19.7130 O.2   206  LYS206     -0.2864
     83  CB        39.1660    7.7660   17.5050 C.3   206  LYS206      0.0298
     84  CG        39.8320    8.8850   16.6920 C.3   206  LYS206      0.0038
     85  CD        41.1370    9.3500   17.3430 C.3   206  LYS206      0.0206
     86  CE        42.1350    8.2080   17.3580 C.3   206  LYS206      0.1093
     87  NZ        43.4220    8.5740   18.0200 N.3   206  LYS206     -0.1314
@<TRIPOS>BOND
     1    55    53   am
     2    53    52    1
     3    53    54    2
     4    52    49    1
     5    45    44    2
     6    48    49    1
     7    84    85    1
     8    84    83    1
     9    49    50    1
    10    51    50    2
    11    85    86    1
    12    86    87    1
    13    44    43    1
    14    83    80    1
    15    35    36    1
    16    80    81    1
    17    80    79    1
    18    43    42    1
    19    43    46    1
    20    42    37   am
    21    81    82    2
    22    47    46    1
    23    36    37    1
    24    36    39    1
    25    73    72    2
    26    37    38    2
    27    79    72   am
    28    72    71    1
    29    56    57    1
    30    41    39    1
    31    39    40    1
    32    65    64    2
    33    61    60    1
    34    62    63    1
    35    64    70   am
    36    64    63    1
    37    71    74    1
    38    71    70    1
    39    74    75    1
    40    57    60    1
    41    57    58    1
    42    58    59    2
    43    63    66    1
    44    10     9    1
    45    66    67    1
    46     7     8    1
    47     7     6    1
    48    75    76    1
    49     3     4    2
    50     3     2    1
    51    76    77    1
    52     9     8    2
    53     9    11    1
    54    69    67   ar
    55     6     5    1
    56    67    68   ar
    57    31    32    1
    58    31    30    1
    59    29    28    2
    60     2     5    1
    61     2     1    1
    62    27    30    1
    63    27    28    1
    64    27    26    1
    65    32    33   ar
    66    32    34   ar
    67    77    78    1
    68    25    24    1
    69    23    22    2
    70    24    21    1
    71    18    19    1
    72    18    17    1
    73    21    22    1
    74    21    20    1
    75    17    16    1
    76    15    14    2
    77    16    13    1
    78    14    13    1
    79    13    12    1
