@<TRIPOS>MOLECULE
tmp/1hwiD02.pdb
 97 90 0 0 0
SMALL
GASTEIGER

@<TRIPOS>ATOM
      1  N         24.7800   24.4080   29.7200 N.3    73  GLU73      -0.1231
      2  CA        23.5100   23.9340   29.1760 C.3    73  GLU73       0.1699
      3  C         22.3860   24.0250   30.2050 C.2    73  GLU73       0.2593
      4  O         22.3970   23.3140   31.2110 O.2    73  GLU73      -0.2718
      5  CB        23.6160   22.4890   28.6530 C.3    73  GLU73       0.0402
      6  CG        22.2510   21.9210   28.2280 C.3    73  GLU73       0.1161
      7  CD        22.3100   20.5790   27.5010 C.2    73  GLU73       0.3649
      8  OE1       23.3690   19.9060   27.5120 O.co2  73  GLU73      -0.2457
      9  OE2       21.2680   20.2010   26.9130 O.co2  73  GLU73      -0.2457
     10  N         21.4050   24.8830   29.9290 N.am   74  GLY74      -0.1942
     11  CA        20.2810   25.0590   30.8370 C.3    74  GLY74       0.2014
     12  C         19.5000   23.7820   31.1080 C.2    74  GLY74       0.2639
     13  O         19.3110   22.9580   30.2060 O.2    74  GLY74      -0.2714
     14  N         19.0790   23.6180   32.3640 N.am   75  CYS75      -0.1953
     15  CA        18.3070   22.4680   32.8390 C.3    75  CYS75       0.1843
     16  C         19.0540   21.1520   33.0260 C.2    75  CYS75       0.2625
     17  O         18.4910   20.2090   33.5720 O.2    75  CYS75      -0.2714
     18  CB        17.0520   22.2420   31.9840 C.3    75  CYS75       0.0997
     19  SG        15.8630   23.6200   32.0530 S.3    75  CYS75      -0.0797
     20  N         20.3220   21.0920   32.6290 N.am   76  LEU76      -0.1977
     21  CA        21.0810   19.8600   32.7730 C.3    76  LEU76       0.1596
     22  C         21.2470   19.4960   34.2540 C.2    76  LEU76       0.2287
     23  O         20.9050   18.3910   34.6550 O.2    76  LEU76      -0.2864
     24  CB        22.4450   19.9700   32.0750 C.3    76  LEU76       0.0297
     25  CG        23.3960   18.7860   32.3240 C.3    76  LEU76       0.0022
     26  CD1       22.7800   17.4560   31.8110 C.3    76  LEU76       0.0001
     27  CD2       24.7270   19.0560   31.6580 C.3    76  LEU76       0.0001
     28  N         17.7480   18.7780   35.9780 N.3    79  SER79      -0.1217
     29  CA        17.2440   17.4880   35.5050 C.3    79  SER79       0.1889
     30  C         17.9780   16.3240   36.1850 C.2    79  SER79       0.2288
     31  O         17.3570   15.3610   36.6320 O.2    79  SER79      -0.2866
     32  CB        17.4130   17.4050   33.9800 C.3    79  SER79       0.2089
     33  OG        16.8290   16.2260   33.4640 O.3    79  SER79      -0.2183
     34  N         16.9210   15.9120   39.7120 N.3    82  ARG82      -0.1245
     35  CA        15.6410   15.2190   39.8380 C.3    82  ARG82       0.1563
     36  C         15.8460   13.6950   39.7860 C.2    82  ARG82       0.2260
     37  O         15.1620   12.9460   40.4740 O.2    82  ARG82      -0.2867
     38  CB        14.6580   15.6500   38.7400 C.3    82  ARG82       0.0307
     39  CG        13.2730   15.0050   38.8910 C.3    82  ARG82       0.0489
     40  CD        12.2650   15.4880   37.8440 C.3    82  ARG82       0.2205
     41  NE        12.6030   15.0320   36.4970 N.pl3  82  ARG82      -0.0865
     42  CZ        11.7100   14.7980   35.5360 C.cat  82  ARG82       0.5346
     43  NH1       10.4110   14.9650   35.7720 N.pl3  82  ARG82       0.1354
     44  NH2       12.1160   14.4550   34.3180 N.pl3  82  ARG82       0.1354
     45  N         13.9800    3.9130   21.7590 N.3   249  LYS249     -0.1245
     46  CA        14.9310    4.9990   21.5790 C.3   249  LYS249      0.1561
     47  C         16.3830    4.5180   21.7740 C.2   249  LYS249      0.2260
     48  O         17.1890    4.5540   20.8430 O.2   249  LYS249     -0.2867
     49  CB        14.6280    6.1210   22.5720 C.3   249  LYS249      0.0271
     50  CG        15.6810    7.2070   22.6400 C.3   249  LYS249      0.0035
     51  CD        15.3730    8.1500   23.7750 C.3   249  LYS249      0.0206
     52  CE        16.5440    9.0920   24.0460 C.3   249  LYS249      0.1093
     53  NZ        16.8110    9.9960   22.9010 N.3   249  LYS249     -0.1314
     54  N         20.5570    7.7570   26.3430 N.3   265  ALA265     -0.1231
     55  CA        19.9410    9.0270   25.9880 C.3   265  ALA265      0.1694
     56  C         20.9450   10.1910   25.9360 C.2   265  ALA265      0.2592
     57  O         21.0370   10.8850   24.9250 O.2   265  ALA265     -0.2718
     58  CB        18.8120    9.3400   26.9400 C.3   265  ALA265      0.0304
     59  N         21.7070   10.4040   27.0080 N.am  266  HIS266     -0.1976
     60  CA        22.6710   11.4980   27.0120 C.3   266  HIS266      0.1656
     61  C         23.8190   11.3680   28.0220 C.2   266  HIS266      0.2291
     62  O         24.2070   12.3390   28.6840 O.2   266  HIS266     -0.2864
     63  CB        21.9490   12.8490   27.1590 C.3   266  HIS266      0.0771
     64  CG        21.3980   13.1080   28.5280 C.ar  266  HIS266      0.0820
     65  ND1       21.4450   14.3530   29.1200 N.ar  266  HIS266     -0.2267
     66  CD2       20.7710   12.2950   29.4100 C.ar  266  HIS266      0.1154
     67  CE1       20.8660   14.2930   30.3080 C.ar  266  HIS266      0.1986
     68  NE2       20.4480   13.0560   30.5070 N.ar  266  HIS266     -0.2212
     69  N         26.5340   14.1510   28.1960 N.3   269  ASN269     -0.1240
     70  CA        26.2930   15.4090   28.9290 C.3   269  ASN269      0.1653
     71  C         26.8110   15.3350   30.3640 C.2   269  ASN269      0.2266
     72  O         27.4410   16.2720   30.8550 O.2   269  ASN269     -0.2867
     73  CB        24.7940   15.7220   29.0060 C.3   269  ASN269      0.1155
     74  CG        24.3010   16.5280   27.8240 C.2   269  ASN269      0.2627
     75  OD1       25.0810   17.1810   27.1420 O.2   269  ASN269     -0.2716
     76  ND2       22.9870   16.5250   27.6070 N.am  269  ASN269     -0.0877
     77  N         15.9010   12.3760   31.9620 N.3   367  LEU367     -0.1245
     78  CA        15.6060   12.7270   30.5780 C.3   367  LEU367      0.1561
     79  C         14.5900   11.7790   29.9470 C.2   367  LEU367      0.2260
     80  O         13.6770   12.2190   29.2380 O.2   367  LEU367     -0.2867
     81  CB        16.8720   12.7750   29.7360 C.3   367  LEU367      0.0270
     82  CG        16.6440   13.1940   28.2770 C.3   367  LEU367      0.0019
     83  CD1       15.9260   14.5600   28.2240 C.3   367  LEU367      0.0001
     84  CD2       17.9790   13.2670   27.5580 C.3   367  LEU367      0.0001
     85  N         11.1580   12.6480   31.0630 N.3   370  ALA370     -0.1231
     86  CA        10.6870   13.8520   30.3740 C.3   370  ALA370      0.1694
     87  C         10.2380   13.5320   28.9440 C.2   370  ALA370      0.2591
     88  O          9.2300   14.0660   28.4720 O.2   370  ALA370     -0.2718
     89  CB        11.7750   14.9000   30.3520 C.3   370  ALA370      0.0304
     90  N         10.9840   12.6640   28.2550 N.am  371  LEU371     -0.1980
     91  CA        10.6350   12.2850   26.8870 C.3   371  LEU371      0.1596
     92  C          9.3810   11.4400   26.8620 C.2   371  LEU371      0.2287
     93  O          8.5720   11.5530   25.9390 O.2   371  LEU371     -0.2864
     94  CB        11.7730   11.5260   26.2050 C.3   371  LEU371      0.0297
     95  CG        13.0190   12.3470   25.8650 C.3   371  LEU371      0.0022
     96  CD1       14.1490   11.4260   25.4190 C.3   371  LEU371      0.0001
     97  CD2       12.6900   13.3550   24.7890 C.3   371  LEU371      0.0001
@<TRIPOS>BOND
     1    48    47    2
     2    46    45    1
     3    46    47    1
     4    46    49    1
     5    49    50    1
     6    50    51    1
     7    53    52    1
     8    51    52    1
     9    97    95    1
    10    57    56    2
    11    96    95    1
    12    95    94    1
    13    56    55    1
    14    56    59   am
    15    93    92    2
    16    55    54    1
    17    55    58    1
    18    94    91    1
    19    92    91    1
    20    91    90    1
    21     9     7   ar
    22    59    60    1
    23    60    63    1
    24    60    61    1
    25    75    74    2
    26    63    64    1
    27     7     8   ar
    28     7     6    1
    29    84    82    1
    30    76    74   am
    31    74    73    1
    32    61    62    2
    33    69    70    1
    34    83    82    1
    35     6     5    1
    36    90    87   am
    37    82    81    1
    38    88    87    2
    39    64    65   ar
    40    64    66   ar
    41     5     2    1
    42    70    73    1
    43    70    71    1
    44    87    86    1
    45    65    67   ar
    46     2     1    1
    47     2     3    1
    48    80    79    2
    49    66    68   ar
    50    81    78    1
    51    10     3   am
    52    10    11    1
    53    79    78    1
    54     3     4    2
    55    13    12    2
    56    67    68   ar
    57    89    86    1
    58    71    72    2
    59    86    85    1
    60    78    77    1
    61    11    12    1
    62    12    14   am
    63    27    25    1
    64    26    25    1
    65    18    19    1
    66    18    15    1
    67    24    25    1
    68    24    21    1
    69    14    15    1
    70    20    21    1
    71    20    16   am
    72    21    22    1
    73    15    16    1
    74    16    17    2
    75    33    32    1
    76    32    29    1
    77    22    23    2
    78    44    42    1
    79    29    28    1
    80    29    30    1
    81    42    43    1
    82    42    41    2
    83    30    31    2
    84    41    40    1
    85    40    39    1
    86    38    39    1
    87    38    35    1
    88    34    35    1
    89    36    35    1
    90    36    37    2
