@<TRIPOS>MOLECULE
tmp/1hwjD01.pdb
 120 117 0 0 0
SMALL
GASTEIGER

@<TRIPOS>ATOM
      1  N        -20.1560  -17.4190   36.1390 N.3   158  SER158     -0.1202
      2  CA       -19.4280  -18.1120   37.2010 C.3   158  SER158      0.2020
      3  C        -18.9070  -17.1320   38.2300 C.2   158  SER158      0.2619
      4  O        -18.7170  -15.9540   37.9350 O.2   158  SER158     -0.2717
      5  CB       -18.2580  -18.8980   36.6030 C.3   158  SER158      0.2103
      6  OG       -17.3000  -19.2660   37.5850 O.3   158  SER158     -0.2182
      7  N        -18.6810  -17.6310   39.4380 N.am  159  ARG159     -0.1965
      8  CA       -18.1690  -16.8110   40.5310 C.3   159  ARG159      0.1729
      9  C        -16.7370  -16.3600   40.2670 C.2   159  ARG159      0.2616
     10  O        -16.3610  -15.2460   40.6250 O.2   159  ARG159     -0.2715
     11  CB       -18.2300  -17.5760   41.8660 C.3   159  ARG159      0.0348
     12  CG       -19.6580  -17.9180   42.3480 C.3   159  ARG159      0.0492
     13  CD       -20.2700  -19.1210   41.6130 C.3   159  ARG159      0.2205
     14  NE       -19.6920  -20.3840   42.0690 N.pl3 159  ARG159     -0.0865
     15  CZ       -19.0820  -21.2670   41.2800 C.cat 159  ARG159      0.5346
     16  NH1      -18.9640  -21.0310   39.9700 N.pl3 159  ARG159      0.1354
     17  NH2      -18.5750  -22.3820   41.8090 N.pl3 159  ARG159      0.1354
     18  N        -15.9510  -17.2070   39.6100 N.am  160  PHE160     -0.1974
     19  CA       -14.5550  -16.8770   39.3250 C.3   160  PHE160      0.1639
     20  C        -14.3110  -16.0980   38.0350 C.2   160  PHE160      0.2290
     21  O        -13.3790  -15.2950   37.9610 O.2   160  PHE160     -0.2864
     22  CB       -13.7000  -18.1380   39.3650 C.3   160  PHE160      0.0560
     23  CG       -13.7910  -18.8760   40.6720 C.ar  160  PHE160     -0.0200
     24  CD1      -14.5460  -20.0460   40.7770 C.ar  160  PHE160     -0.0042
     25  CD2      -13.1600  -18.3790   41.8130 C.ar  160  PHE160     -0.0042
     26  CE1      -14.6710  -20.7050   42.0010 C.ar  160  PHE160     -0.0003
     27  CE2      -13.2790  -19.0320   43.0390 C.ar  160  PHE160     -0.0003
     28  CZ       -14.0330  -20.1920   43.1340 C.ar  160  PHE160     -0.0000
     29  N         -9.4070  -17.0080   36.6010 N.3   183  SER183     -0.1202
     30  CA       -10.2690  -18.1660   36.7890 C.3   183  SER183      0.2020
     31  C         -9.9450  -18.8970   38.0860 C.2   183  SER183      0.2619
     32  O         -9.8950  -20.1270   38.1160 O.2   183  SER183     -0.2717
     33  CB       -10.0820  -19.1130   35.5940 C.3   183  SER183      0.2103
     34  OG        -8.7020  -19.4870   35.4420 O.3   183  SER183     -0.2182
     35  N         -9.7140  -18.1400   39.1530 N.am  184  GLY184     -0.1942
     36  CA        -9.3710  -18.7500   40.4320 C.3   184  GLY184      0.2014
     37  C         -8.1410  -19.6160   40.2560 C.2   184  GLY184      0.2639
     38  O         -7.1920  -19.2110   39.5710 O.2   184  GLY184     -0.2714
     39  N         -8.1980  -20.8360   40.7720 N.am  185  ASP185     -0.1957
     40  CA        -7.0790  -21.7570   40.6680 C.3   185  ASP185      0.1840
     41  C         -7.1870  -22.7420   39.5100 C.2   185  ASP185      0.2622
     42  O         -6.3590  -23.6580   39.3800 O.2   185  ASP185     -0.2715
     43  CB        -6.8930  -22.5010   41.9880 C.3   185  ASP185      0.1450
     44  CG        -6.4460  -21.5900   43.0910 C.2   185  ASP185      0.3671
     45  OD1       -5.2430  -21.2450   43.1210 O.co2 185  ASP185     -0.2456
     46  OD2       -7.3060  -21.1800   43.8960 O.co2 185  ASP185     -0.2456
     47  N         -8.2220  -22.5780   38.6870 N.am  186  ALA186     -0.1963
     48  CA        -8.4170  -23.4470   37.5220 C.3   186  ALA186      0.1728
     49  C         -7.6450  -22.8960   36.3210 C.2   186  ALA186      0.2616
     50  O         -7.4730  -21.6890   36.1940 O.2   186  ALA186     -0.2715
     51  CB        -9.8950  -23.5450   37.1750 C.3   186  ALA186      0.0334
     52  N         -7.1570  -23.7860   35.4600 N.am  187  MET187     -0.1963
     53  CA        -6.4520  -23.3630   34.2430 C.3   187  MET187      0.1736
     54  C         -7.4600  -22.4840   33.4780 C.2   187  MET187      0.2617
     55  O         -7.0980  -21.5190   32.8090 O.2   187  MET187     -0.2715
     56  CB        -5.9930  -24.5870   33.4500 C.3   187  MET187      0.0427
     57  CG        -5.2350  -24.2800   32.1530 C.3   187  MET187      0.0599
     58  SD        -6.4620  -24.1840   30.7780 S.3   187  MET187     -0.1393
     59  CE        -6.4570  -25.9530   30.2690 C.3   187  MET187      0.0692
     60  N         -8.7340  -22.7870   33.6740 N.am  188  GLY188     -0.1940
     61  CA        -9.8180  -21.9960   33.1300 C.3   188  GLY188      0.2014
     62  C        -10.3390  -22.1110   31.7190 C.2   188  GLY188      0.2639
     63  O        -11.1210  -21.2660   31.3250 O.2   188  GLY188     -0.2714
     64  N         -9.9410  -23.1350   30.9740 N.am  189  MET189     -0.1963
     65  CA       -10.4230  -23.2920   29.6020 C.3   189  MET189      0.1736
     66  C        -11.9550  -23.3820   29.5470 C.2   189  MET189      0.2616
     67  O        -12.6070  -22.5230   28.9420 O.2   189  MET189     -0.2715
     68  CB        -9.8030  -24.5330   28.9690 C.3   189  MET189      0.0427
     69  CG        -9.4900  -24.4020   27.4900 C.3   189  MET189      0.0599
     70  SD        -8.1350  -23.2330   27.0950 S.3   189  MET189     -0.1393
     71  CE        -9.1080  -21.6920   26.8420 C.3   189  MET189      0.0692
     72  N        -12.5330  -24.3920   30.2000 N.am  190  ASN190     -0.1958
     73  CA       -13.9920  -24.5550   30.1880 C.3   190  ASN190      0.1819
     74  C        -14.7410  -23.3360   30.7170 C.2   190  ASN190      0.2621
     75  O        -15.7250  -22.8950   30.1290 O.2   190  ASN190     -0.2715
     76  CB       -14.4290  -25.8090   30.9620 C.3   190  ASN190      0.1195
     77  CG       -14.1760  -27.1170   30.1790 C.2   190  ASN190      0.2630
     78  OD1      -14.4870  -27.2330   28.9740 O.2   190  ASN190     -0.2716
     79  ND2      -13.6230  -28.1140   30.8750 N.am  190  ASN190     -0.0877
     80  N        -14.2530  -22.7750   31.8140 N.am  191  MET191     -0.1977
     81  CA       -14.8830  -21.6090   32.4090 C.3   191  MET191      0.1605
     82  C        -14.9140  -20.4190   31.4440 C.2   191  MET191      0.2287
     83  O        -15.9530  -19.7820   31.2790 O.2   191  MET191     -0.2864
     84  CB       -14.1500  -21.2390   33.6890 C.3   191  MET191      0.0413
     85  CG       -14.7540  -20.1260   34.4780 C.3   191  MET191      0.0598
     86  SD       -13.6210  -19.6840   35.8100 S.3   191  MET191     -0.1393
     87  CE       -13.3090  -21.2970   36.6020 C.3   191  MET191      0.0692
     88  N         -6.8290  -27.0260   40.1870 N.3   337  VAL337     -0.1231
     89  CA        -8.1400  -27.6610   40.3570 C.3   337  VAL337      0.1692
     90  C         -8.6670  -28.0100   38.9550 C.2   337  VAL337      0.2593
     91  O         -8.3800  -27.2990   37.9900 O.2   337  VAL337     -0.2718
     92  CB        -9.1790  -26.7480   41.0680 C.3   337  VAL337      0.0266
     93  CG1       -8.7410  -26.4610   42.4960 C.3   337  VAL337      0.0020
     94  CG2       -9.3460  -25.4290   40.3370 C.3   337  VAL337      0.0020
     95  N         -9.4120  -29.1100   38.8450 N.am  338  GLY338     -0.1942
     96  CA        -9.9800  -29.5290   37.5670 C.3   338  GLY338      0.2014
     97  C         -9.0450  -30.3330   36.6840 C.2   338  GLY338      0.2639
     98  O         -7.8240  -30.3010   36.8590 O.2   338  GLY338     -0.2714
     99  N         -9.6180  -31.0800   35.7430 N.am  339  GLY339     -0.1954
    100  CA        -8.8060  -31.8680   34.8400 C.3   339  GLY339      0.1869
    101  C         -8.0470  -32.9740   35.5390 C.2   339  GLY339      0.2309
    102  O         -8.5840  -33.6580   36.4110 O.2   339  GLY339     -0.2863
    103  N         -8.0190  -25.7360   45.4830 N.3   358  ALA358     -0.1231
    104  CA        -8.2920  -24.3200   45.5640 C.3   358  ALA358      0.1694
    105  C         -7.6540  -23.6880   46.7700 C.2   358  ALA358      0.2592
    106  O         -7.3880  -24.3550   47.7680 O.2   358  ALA358     -0.2718
    107  CB        -9.7810  -24.1010   45.6240 C.3   358  ALA358      0.0304
    108  N         -7.3190  -22.4140   46.6360 N.am  359  CYS359     -0.1970
    109  CA        -6.7920  -21.6660   47.7600 C.3   359  CYS359      0.1712
    110  C         -8.0700  -20.9510   48.1800 C.2   359  CYS359      0.2296
    111  O         -8.5050  -19.9950   47.5270 O.2   359  CYS359     -0.2864
    112  CB        -5.7350  -20.6550   47.3210 C.3   359  CYS359      0.0983
    113  SG        -5.0220  -19.7100   48.6940 S.3   359  CYS359     -0.0798
    114  N         -8.3090  -17.2110   45.9380 N.3   363  PRO363     -0.2116
    115  CA        -8.4320  -17.9580   44.6830 C.3   363  PRO363      0.1372
    116  C         -7.4160  -17.5490   43.6310 C.2   363  PRO363      0.2244
    117  O         -7.3280  -16.3830   43.2610 O.2   363  PRO363     -0.2868
    118  CB        -9.8580  -17.6340   44.2390 C.3   363  PRO363      0.0268
    119  CG       -10.5750  -17.4630   45.5400 C.3   363  PRO363      0.0207
    120  CD        -9.6040  -16.5980   46.2920 C.3   363  PRO363      0.0892
@<TRIPOS>BOND
     1    71    70    1
     2    70    69    1
     3    69    68    1
     4    67    66    2
     5    68    65    1
     6    78    77    2
     7    66    65    1
     8    66    72   am
     9    65    64    1
    10    75    74    2
    11    77    79   am
    12    77    76    1
    13    73    72    1
    14    73    74    1
    15    73    76    1
    16    59    58    1
    17    74    80   am
    18    58    57    1
    19    64    62   am
    20    83    82    2
    21    63    62    2
    22    82    81    1
    23    62    61    1
    24    80    81    1
    25    57    56    1
    26    81    84    1
    27    55    54    2
    28    61    60    1
    29    56    53    1
    30    54    60   am
    31    54    53    1
    32    84    85    1
    33    53    52    1
    34    85    86    1
    35   100   101    1
    36   100    99    1
    37    34    33    1
    38    52    49   am
    39   101   102    2
    40    33    30    1
    41    99    97   am
    42    86    87    1
    43     1     2    1
    44    50    49    2
    45    49    48    1
    46    29    30    1
    47     5     2    1
    48     5     6    1
    49    97    98    2
    50    97    96    1
    51    30    31    1
    52    51    48    1
    53     2     3    1
    54    48    47    1
    55    96    95    1
    56     4     3    2
    57    21    20    2
    58    91    90    2
    59    20    19    1
    60    31    32    2
    61    31    35   am
    62     3     7   am
    63    47    41   am
    64    95    90   am
    65    90    89    1
    66    35    36    1
    67    19    22    1
    68    19    18    1
    69    22    23    1
    70    42    41    2
    71     7     8    1
    72    41    40    1
    73    38    37    2
    74    18     9   am
    75    16    15    1
    76    88    89    1
    77    37    36    1
    78    37    39   am
    79     9     8    1
    80     9    10    2
    81    94    92    1
    82    89    92    1
    83     8    11    1
    84    40    39    1
    85    40    43    1
    86    23    24   ar
    87    23    25   ar
    88    24    26   ar
    89    92    93    1
    90    15    17    1
    91    15    14    2
    92    13    14    1
    93    13    12    1
    94    25    27   ar
    95    11    12    1
    96    43    44    1
    97    26    28   ar
    98    27    28   ar
    99    44    45   ar
   100    44    46   ar
   101   117   116    2
   102   116   115    1
   103   118   115    1
   104   118   119    1
   105   115   114    1
   106   103   104    1
   107   119   120    1
   108   104   107    1
   109   104   105    1
   110   114   120    1
   111   108   105   am
   112   108   109    1
   113   105   106    2
   114   112   109    1
   115   112   113    1
   116   111   110    2
   117   109   110    1
