@<TRIPOS>MOLECULE
tmp/1hwjD03.pdb
 107 99 0 0 0
SMALL
GASTEIGER

@<TRIPOS>ATOM
      1  N         13.4600  -39.2160   30.2300 N.3    91  GLU91      -0.1231
      2  CA        14.7220  -38.7470   29.6470 C.3    91  GLU91       0.1699
      3  C         15.8440  -38.7480   30.6950 C.2    91  GLU91       0.2593
      4  O         15.8520  -37.9280   31.6170 O.2    91  GLU91      -0.2718
      5  CB        14.5860  -37.3350   29.0630 C.3    91  GLU91       0.0402
      6  CG        15.9050  -36.8160   28.4840 C.3    91  GLU91       0.1161
      7  CD        15.7940  -35.4840   27.7180 C.2    91  GLU91       0.3649
      8  OE1       14.7540  -34.7900   27.8110 O.co2  91  GLU91      -0.2457
      9  OE2       16.7860  -35.1260   27.0310 O.co2  91  GLU91      -0.2457
     10  N         16.8220  -39.6250   30.4960 N.am   92  GLY92      -0.1942
     11  CA        17.9310  -39.7370   31.4360 C.3    92  GLY92       0.2014
     12  C         18.7450  -38.4770   31.6420 C.2    92  GLY92       0.2639
     13  O         19.0490  -37.7780   30.6850 O.2    92  GLY92      -0.2714
     14  N         19.1040  -38.2210   32.9000 N.am   93  CYS93      -0.1953
     15  CA        19.8970  -37.0610   33.3200 C.3    93  CYS93       0.1843
     16  C         19.1330  -35.7520   33.4460 C.2    93  CYS93       0.2625
     17  O         19.7130  -34.7550   33.8720 O.2    93  CYS93      -0.2714
     18  CB        21.1110  -36.8370   32.4100 C.3    93  CYS93       0.0997
     19  SG        22.2420  -38.2380   32.3020 S.3    93  CYS93      -0.0797
     20  N         17.8540  -35.7480   33.0750 N.am   94  LEU94      -0.1977
     21  CA        17.0560  -34.5320   33.1610 C.3    94  LEU94       0.1596
     22  C         16.8450  -34.1100   34.6110 C.2    94  LEU94       0.2287
     23  O         17.1300  -32.9690   34.9730 O.2    94  LEU94      -0.2864
     24  CB        15.7090  -34.6930   32.4450 C.3    94  LEU94       0.0297
     25  CG        14.7430  -33.5140   32.6060 C.3    94  LEU94       0.0022
     26  CD1       15.4040  -32.2130   32.1240 C.3    94  LEU94       0.0001
     27  CD2       13.4280  -33.8090   31.8490 C.3    94  LEU94       0.0001
     28  N         20.4130  -33.2610   36.1840 N.3    97  SER97      -0.1217
     29  CA        20.9420  -31.9570   35.7710 C.3    97  SER97       0.1889
     30  C         20.1210  -30.8260   36.3740 C.2    97  SER97       0.2288
     31  O         20.6840  -29.8200   36.7950 O.2    97  SER97      -0.2866
     32  CB        21.0170  -31.8010   34.2450 C.3    97  SER97       0.2089
     33  OG        19.7530  -32.0420   33.6170 O.3    97  SER97      -0.2183
     34  N         21.1040  -30.3460   39.9680 N.3   100  ARG100     -0.1245
     35  CA        22.3510  -29.6060   40.0560 C.3   100  ARG100      0.1563
     36  C         22.0900  -28.1100   39.9520 C.2   100  ARG100      0.2260
     37  O         22.6980  -27.3110   40.6800 O.2   100  ARG100     -0.2867
     38  CB        23.3270  -30.0250   38.9510 C.3   100  ARG100      0.0307
     39  CG        24.6540  -29.2690   39.0160 C.3   100  ARG100      0.0489
     40  CD        25.7000  -29.8190   38.0630 C.3   100  ARG100      0.2205
     41  NE        25.5100  -29.3210   36.7100 N.pl3 100  ARG100     -0.0865
     42  CZ        26.4310  -29.3850   35.7490 C.cat 100  ARG100      0.5346
     43  NH1       27.6230  -29.9340   35.9930 N.pl3 100  ARG100      0.1354
     44  NH2       26.1780  -28.8860   34.5430 N.pl3 100  ARG100      0.1354
     45  N         23.6960  -18.8200   21.5490 N.3   267  LYS267     -0.1245
     46  CA        22.8000  -19.9600   21.4070 C.3   267  LYS267      0.1561
     47  C         21.3590  -19.4980   21.5770 C.2   267  LYS267      0.2260
     48  O         20.5760  -19.5280   20.6210 O.2   267  LYS267     -0.2867
     49  CB        23.1030  -21.0460   22.4500 C.3   267  LYS267      0.0271
     50  CG        22.0500  -22.1570   22.5460 C.3   267  LYS267      0.0035
     51  CD        22.3250  -23.0620   23.7410 C.3   267  LYS267      0.0206
     52  CE        21.2480  -24.1300   23.9410 C.3   267  LYS267      0.1093
     53  NZ        21.1850  -25.0980   22.8060 N.3   267  LYS267     -0.1314
     54  N         17.1840  -22.6790   26.3080 N.3   283  ALA283     -0.1231
     55  CA        17.8460  -23.9230   25.9700 C.3   283  ALA283      0.1694
     56  C         16.9170  -25.1270   25.9860 C.2   283  ALA283      0.2592
     57  O         16.8630  -25.8870   25.0180 O.2   283  ALA283     -0.2718
     58  CB        19.0470  -24.1440   26.8890 C.3   283  ALA283      0.0304
     59  N         16.1410  -25.2750   27.0550 N.am  284  HIS284     -0.1976
     60  CA        15.2480  -26.4170   27.1380 C.3   284  HIS284      0.1656
     61  C         14.1370  -26.2900   28.1570 C.2   284  HIS284      0.2291
     62  O         13.8190  -27.2440   28.8420 O.2   284  HIS284     -0.2864
     63  CB        16.0350  -27.7300   27.3420 C.3   284  HIS284      0.0771
     64  CG        16.6140  -27.8980   28.7190 C.ar  284  HIS284      0.0820
     65  ND1       16.6640  -29.1230   29.3590 N.ar  284  HIS284     -0.2267
     66  CD2       17.1480  -26.9990   29.5840 C.ar  284  HIS284      0.1154
     67  CE1       17.2010  -28.9690   30.5530 C.ar  284  HIS284      0.1986
     68  NE2       17.5020  -27.6920   30.7140 N.ar  284  HIS284     -0.2212
     69  N         11.5210  -29.1420   28.4170 N.3   287  ASN287     -0.1240
     70  CA        11.8090  -30.3510   29.2260 C.3   287  ASN287      0.1653
     71  C         11.2660  -30.2320   30.6500 C.2   287  ASN287      0.2266
     72  O         10.5850  -31.1290   31.1410 O.2   287  ASN287     -0.2867
     73  CB        13.3240  -30.6270   29.2960 C.3   287  ASN287      0.1155
     74  CG        13.8190  -31.4110   28.1130 C.2   287  ASN287      0.2627
     75  OD1       13.0380  -32.0680   27.4530 O.2   287  ASN287     -0.2716
     76  ND2       15.1350  -31.3850   27.8650 N.am  287  ASN287     -0.0877
     77  N         21.9650  -25.3250   34.6000 N.3   384  SER384     -0.1202
     78  CA        22.6650  -26.5980   34.5090 C.3   384  SER384      0.2020
     79  C         23.0390  -27.0170   33.0990 C.2   384  SER384      0.2618
     80  O         24.2180  -27.3070   32.8340 O.2   384  SER384     -0.2717
     81  CB        21.8380  -27.6890   35.1910 C.3   384  SER384      0.2103
     82  OG        22.6240  -28.8420   35.4410 O.3   384  SER384     -0.2182
     83  N         22.0600  -27.0410   32.1860 N.am  385  LEU385     -0.1979
     84  CA        22.3510  -27.4080   30.8020 C.3   385  LEU385      0.1596
     85  C         23.3190  -26.4130   30.1570 C.2   385  LEU385      0.2287
     86  O         24.2580  -26.8250   29.4860 O.2   385  LEU385     -0.2864
     87  CB        21.0680  -27.5420   29.9580 C.3   385  LEU385      0.0297
     88  CG        21.2640  -27.8520   28.4740 C.3   385  LEU385      0.0022
     89  CD1       22.1000  -29.1360   28.3450 C.3   385  LEU385      0.0001
     90  CD2       19.9280  -28.0370   27.7570 C.3   385  LEU385      0.0001
     91  N         26.8660  -27.1000   31.2480 N.3   388  ALA388     -0.1231
     92  CA        27.3760  -28.2780   30.5500 C.3   388  ALA388      0.1694
     93  C         27.8040  -27.9740   29.1180 C.2   388  ALA388      0.2591
     94  O         28.7850  -28.5390   28.6370 O.2   388  ALA388     -0.2718
     95  CB        26.3620  -29.4020   30.5830 C.3   388  ALA388      0.0304
     96  N         27.0920  -27.0740   28.4370 N.am  389  LEU389     -0.1980
     97  CA        27.4510  -26.7240   27.0640 C.3   389  LEU389      0.1596
     98  C         28.6620  -25.7970   27.0530 C.2   389  LEU389      0.2287
     99  O         29.5000  -25.8970   26.1740 O.2   389  LEU389     -0.2864
    100  CB        26.2650  -26.0830   26.3250 C.3   389  LEU389      0.0297
    101  CG        25.0890  -27.0500   26.1790 C.3   389  LEU389      0.0022
    102  CD1       23.8600  -26.3330   25.6450 C.3   389  LEU389      0.0001
    103  CD2       25.4920  -28.2080   25.2780 C.3   389  LEU389      0.0001
    104  N         31.6350  -28.2750   27.8540 N.3   392  GLY392     -0.1225
    105  CA        31.9140  -29.1890   26.7560 C.3   392  GLY392      0.1811
    106  C         31.3790  -30.5970   26.9970 C.2   392  GLY392      0.2280
    107  O         32.0870  -31.3940   27.6590 O.2   392  GLY392     -0.2866
@<TRIPOS>BOND
     1    48    47    2
     2    46    45    1
     3    46    47    1
     4    46    49    1
     5    49    50    1
     6    50    51    1
     7    53    52    1
     8    51    52    1
     9    57    56    2
    10   103   101    1
    11   102   101    1
    12    55    56    1
    13    55    54    1
    14    55    58    1
    15    56    59   am
    16    99    98    2
    17   101   100    1
    18   100    97    1
    19   105   106    1
    20   105   104    1
    21   106   107    2
    22     9     7   ar
    23    98    97    1
    24    59    60    1
    25    97    96    1
    26    60    63    1
    27    60    61    1
    28    63    64    1
    29    75    74    2
    30     7     8   ar
    31     7     6    1
    32    90    88    1
    33    76    74   am
    34    74    73    1
    35    61    62    2
    36    89    88    1
    37    69    70    1
    38    96    93   am
    39    88    87    1
    40     6     5    1
    41    94    93    2
    42    64    65   ar
    43    64    66   ar
    44     5     2    1
    45    93    92    1
    46    70    73    1
    47    70    71    1
    48    65    67   ar
    49    86    85    2
    50    66    68   ar
    51     2     1    1
    52     2     3    1
    53    87    84    1
    54    85    84    1
    55    10     3   am
    56    10    11    1
    57    92    95    1
    58    92    91    1
    59    67    68   ar
    60    71    72    2
    61    13    12    2
    62     3     4    2
    63    84    83    1
    64    11    12    1
    65    12    14   am
    66    27    25    1
    67    26    25    1
    68    83    79   am
    69    19    18    1
    70    18    15    1
    71    24    25    1
    72    24    21    1
    73    80    79    2
    74    14    15    1
    75    20    21    1
    76    20    16   am
    77    79    78    1
    78    21    22    1
    79    15    16    1
    80    16    17    2
    81    33    32    1
    82    32    29    1
    83    78    77    1
    84    78    81    1
    85    44    42    1
    86    22    23    2
    87    81    82    1
    88    42    43    1
    89    42    41    2
    90    29    28    1
    91    29    30    1
    92    30    31    2
    93    41    40    1
    94    40    39    1
    95    38    39    1
    96    38    35    1
    97    36    35    1
    98    36    37    2
    99    34    35    1
