@<TRIPOS>MOLECULE
tmp/1hwjD02.pdb
 95 87 0 0 0
SMALL
GASTEIGER

@<TRIPOS>ATOM
      1  N         -9.6370  -16.9450   25.3450 N.3   122  ARG122     -0.1245
      2  CA       -10.3830  -17.7240   24.3510 C.3   122  ARG122      0.1563
      3  C        -10.6130  -16.7140   23.2400 C.2   122  ARG122      0.2260
      4  O        -11.0170  -15.5690   23.5160 O.2   122  ARG122     -0.2867
      5  CB       -11.7060  -18.2690   24.8990 C.3   122  ARG122      0.0307
      6  CG       -12.4780  -19.1270   23.8880 C.3   122  ARG122      0.0489
      7  CD       -11.6130  -20.2230   23.2560 C.3   122  ARG122      0.2205
      8  NE       -11.5920  -21.4790   24.0020 N.pl3 122  ARG122     -0.0865
      9  CZ       -10.7920  -22.5020   23.7090 C.cat 122  ARG122      0.5346
     10  NH1       -9.9260  -22.4080   22.7040 N.pl3 122  ARG122      0.1354
     11  NH2      -10.9500  -23.6680   24.3300 N.pl3 122  ARG122      0.1354
     12  N         -9.9410  -23.1350   30.9740 N.3   189  MET189     -0.1230
     13  CA       -10.4230  -23.2920   29.6020 C.3   189  MET189      0.1702
     14  C        -11.9550  -23.3820   29.5470 C.2   189  MET189      0.2592
     15  O        -12.6070  -22.5230   28.9420 O.2   189  MET189     -0.2718
     16  CB        -9.8030  -24.5330   28.9690 C.3   189  MET189      0.0401
     17  CG        -9.4900  -24.4020   27.4900 C.3   189  MET189      0.0596
     18  SD        -8.1350  -23.2330   27.0950 S.3   189  MET189     -0.1393
     19  CE        -9.1080  -21.6920   26.8420 C.3   189  MET189      0.0692
     20  N        -12.5330  -24.3920   30.2000 N.am  190  ASN190     -0.1974
     21  CA       -13.9920  -24.5550   30.1880 C.3   190  ASN190      0.1688
     22  C        -14.7410  -23.3360   30.7170 C.2   190  ASN190      0.2292
     23  O        -15.7250  -22.8950   30.1290 O.2   190  ASN190     -0.2864
     24  CB       -14.4290  -25.8090   30.9620 C.3   190  ASN190      0.1181
     25  CG       -14.1760  -27.1170   30.1790 C.2   190  ASN190      0.2629
     26  OD1      -14.4870  -27.2330   28.9740 O.2   190  ASN190     -0.2716
     27  ND2      -13.6230  -28.1140   30.8750 N.am  190  ASN190     -0.0877
     28  N        -14.7740  -20.5440   28.2330 N.3   193  SER193     -0.1217
     29  CA       -15.6390  -20.9020   27.0980 C.3   193  SER193      0.1889
     30  C        -17.0860  -20.5680   27.4190 C.2   193  SER193      0.2288
     31  O        -17.7490  -19.9160   26.6270 O.2   193  SER193     -0.2866
     32  CB       -15.4930  -22.3760   26.7240 C.3   193  SER193      0.2089
     33  OG       -14.2050  -22.6170   26.1740 O.3   193  SER193     -0.2183
     34  N        -19.3480  -17.8420   25.4190 N.3   197  GLU197     -0.1245
     35  CA       -20.6280  -18.1480   24.7880 C.3   197  GLU197      0.1567
     36  C        -21.7300  -17.1910   25.2640 C.2   197  GLU197      0.2260
     37  O        -22.4840  -16.6580   24.4450 O.2   197  GLU197     -0.2867
     38  CB       -20.9990  -19.6280   24.9870 C.3   197  GLU197      0.0388
     39  CG       -20.2970  -20.5680   23.9610 C.3   197  GLU197      0.1160
     40  CD       -20.2990  -22.0800   24.3360 C.2   197  GLU197      0.3649
     41  OE1      -20.8980  -22.4620   25.3810 O.co2 197  GLU197     -0.2457
     42  OE2      -19.6750  -22.8870   23.5840 O.co2 197  GLU197     -0.2457
     43  N        -16.3890  -20.8900   18.3020 N.3   215  VAL215     -0.1231
     44  CA       -16.0960  -20.3980   19.6430 C.3   215  VAL215      0.1692
     45  C        -14.5900  -20.1580   19.8010 C.2   215  VAL215      0.2592
     46  O        -14.1770  -19.3550   20.6300 O.2   215  VAL215     -0.2718
     47  CB       -16.6730  -21.3060   20.7480 C.3   215  VAL215      0.0266
     48  CG1      -16.1260  -22.7240   20.6180 C.3   215  VAL215      0.0020
     49  CG2      -16.3580  -20.7170   22.1370 C.3   215  VAL215      0.0020
     50  N        -13.7930  -20.8560   18.9900 N.am  216  SER216     -0.1952
     51  CA       -12.3470  -20.6460   18.9350 C.3   216  SER216      0.1924
     52  C        -11.9100  -20.4450   17.4880 C.2   216  SER216      0.2314
     53  O        -11.9960  -21.3700   16.6740 O.2   216  SER216     -0.2863
     54  CB       -11.5260  -21.8000   19.5250 C.3   216  SER216      0.2116
     55  OG       -10.1350  -21.5760   19.2270 O.3   216  SER216     -0.2180
     56  N         -8.7430  -19.6180   16.7320 N.3   218  ASN218     -0.1240
     57  CA        -7.2820  -19.6980   16.7980 C.3   218  ASN218      0.1653
     58  C         -6.5890  -18.3850   17.2010 C.2   218  ASN218      0.2266
     59  O         -5.3830  -18.2310   17.0220 O.2   218  ASN218     -0.2867
     60  CB        -6.6870  -20.2570   15.4950 C.3   218  ASN218      0.1155
     61  CG        -6.6280  -21.7790   15.4970 C.2   218  ASN218      0.2627
     62  OD1       -7.1910  -22.4270   16.4010 O.2   218  ASN218     -0.2716
     63  ND2       -5.9310  -22.3650   14.5050 N.am  218  ASN218     -0.0877
     64  N         -6.7570  -17.3760   20.3540 N.3   220  CYS220     -0.1235
     65  CA        -6.5610  -17.4850   21.8060 C.3   220  CYS220      0.1677
     66  C         -5.1010  -17.1730   22.2500 C.2   220  CYS220      0.2270
     67  O         -4.9070  -16.2480   23.0120 O.2   220  CYS220     -0.2867
     68  CB        -7.0500  -18.8500   22.3170 C.3   220  CYS220      0.0956
     69  SG        -8.5580  -19.5410   21.4090 S.3   220  CYS220     -0.0801
     70  N         -4.6790  -21.3100   21.6380 N.3   222  ASP222     -0.1225
     71  CA        -4.5040  -22.5090   22.4500 C.3   222  ASP222      0.1805
     72  C         -3.8000  -23.6890   21.7620 C.2   222  ASP222      0.2598
     73  O         -4.2370  -24.1550   20.7020 O.2   222  ASP222     -0.2718
     74  CB        -5.8650  -22.9510   23.0080 C.3   222  ASP222      0.1424
     75  CG        -5.7360  -24.0390   24.0770 C.2   222  ASP222      0.3668
     76  OD1       -4.9350  -23.8810   25.0200 O.co2 222  ASP222     -0.2456
     77  OD2       -6.4410  -25.0670   23.9720 O.co2 222  ASP222     -0.2456
     78  N         -2.7050  -24.1580   22.3670 N.am  223  LYS223     -0.1966
     79  CA        -1.9300  -25.3010   21.8710 C.3   223  LYS223      0.1728
     80  C         -1.2990  -25.2420   20.4760 C.2   223  LYS223      0.2616
     81  O         -1.0010  -26.2790   19.8900 O.2   223  LYS223     -0.2715
     82  CB        -2.7310  -26.5970   22.0190 C.3   223  LYS223      0.0311
     83  CG        -3.0690  -26.9290   23.4500 C.3   223  LYS223      0.0038
     84  CD        -4.1590  -27.9960   23.5610 C.3   223  LYS223      0.0206
     85  CE        -4.5750  -28.1520   25.0310 C.3   223  LYS223      0.1093
     86  NZ        -5.5300  -29.2970   25.2410 N.3   223  LYS223     -0.1314
     87  N         -1.0730  -24.0380   19.9600 N.am  224  LYS224     -0.1977
     88  CA        -0.3860  -23.8410   18.6770 C.3   224  LYS224      0.1596
     89  C          0.5640  -22.6730   18.9130 C.2   224  LYS224      0.2287
     90  O          0.2190  -21.7370   19.6360 O.2   224  LYS224     -0.2864
     91  CB        -1.3680  -23.4470   17.5480 C.3   224  LYS224      0.0298
     92  CG        -2.1110  -24.6420   16.8730 C.3   224  LYS224      0.0038
     93  CD        -3.4500  -24.9430   17.5650 C.3   224  LYS224      0.0206
     94  CE        -4.3740  -23.7390   17.4530 C.3   224  LYS224      0.1093
     95  NZ        -5.6710  -24.0260   18.1360 N.3   224  LYS224     -0.1314
@<TRIPOS>BOND
     1    63    61   am
     2    60    61    1
     3    60    57    1
     4    61    62    2
     5    53    52    2
     6    56    57    1
     7    57    58    1
     8    92    91    1
     9    92    93    1
    10    59    58    2
    11    94    93    1
    12    94    95    1
    13    52    51    1
    14    91    88    1
    15    43    44    1
    16    88    89    1
    17    88    87    1
    18    89    90    2
    19    51    50    1
    20    51    54    1
    21    50    45   am
    22    55    54    1
    23    44    45    1
    24    44    47    1
    25    45    46    2
    26    81    80    2
    27    87    80   am
    28    64    65    1
    29    80    79    1
    30    48    47    1
    31    73    72    2
    32    47    49    1
    33    69    68    1
    34    70    71    1
    35    72    78   am
    36    72    71    1
    37    65    66    1
    38    65    68    1
    39    79    82    1
    40    79    78    1
    41    82    83    1
    42    66    67    2
    43    71    74    1
    44    10     9    1
    45    74    75    1
    46     3     4    2
    47     3     2    1
    48     7     6    1
    49     7     8    1
    50    83    84    1
    51    84    85    1
    52    42    40   ar
    53     9     8    2
    54     9    11    1
    55     6     5    1
    56    39    40    1
    57    39    38    1
    58    77    75   ar
    59    75    76   ar
    60    40    41   ar
    61     2     5    1
    62     2     1    1
    63    37    36    2
    64    35    38    1
    65    35    36    1
    66    35    34    1
    67    85    86    1
    68    33    32    1
    69    31    30    2
    70    32    29    1
    71    19    18    1
    72    18    17    1
    73    29    30    1
    74    29    28    1
    75    17    16    1
    76    15    14    2
    77    16    13    1
    78    26    25    2
    79    14    13    1
    80    14    20   am
    81    13    12    1
    82    23    22    2
    83    25    27   am
    84    25    24    1
    85    21    20    1
    86    21    22    1
    87    21    24    1
