@<TRIPOS>MOLECULE
tmp/1hwkD01.pdb
 95 87 0 0 0
SMALL
GASTEIGER

@<TRIPOS>ATOM
      1  N         -9.6740  -16.8960   25.1930 N.3   117  ARG117     -0.1245
      2  CA       -10.4410  -17.6480   24.1990 C.3   117  ARG117      0.1563
      3  C        -10.6670  -16.6110   23.1080 C.2   117  ARG117      0.2260
      4  O        -11.0710  -15.4790   23.4000 O.2   117  ARG117     -0.2867
      5  CB       -11.7700  -18.1980   24.7580 C.3   117  ARG117      0.0307
      6  CG       -12.5990  -19.0070   23.7320 C.3   117  ARG117      0.0489
      7  CD       -11.8160  -20.1210   23.0230 C.3   117  ARG117      0.2205
      8  NE       -11.7150  -21.3640   23.7880 N.pl3 117  ARG117     -0.0865
      9  CZ       -10.8680  -22.3600   23.5210 C.cat 117  ARG117      0.5346
     10  NH1      -10.0020  -22.2900   22.5050 N.pl3 117  ARG117      0.1354
     11  NH2      -10.9630  -23.4900   24.2120 N.pl3 117  ARG117      0.1354
     12  N        -10.0280  -23.1140   30.7970 N.3   184  MET184     -0.1230
     13  CA       -10.5760  -23.2440   29.4520 C.3   184  MET184      0.1702
     14  C        -12.0960  -23.3930   29.4120 C.2   184  MET184      0.2592
     15  O        -12.7770  -22.6110   28.7360 O.2   184  MET184     -0.2718
     16  CB        -9.8910  -24.3680   28.6690 C.3   184  MET184      0.0401
     17  CG        -8.4770  -24.0070   28.1920 C.3   184  MET184      0.0596
     18  SD        -8.3490  -23.2140   26.5570 S.3   184  MET184     -0.1393
     19  CE        -9.2120  -21.6110   26.8620 C.3   184  MET184      0.0692
     20  N        -12.6440  -24.3430   30.1620 N.am  185  ASN185     -0.1974
     21  CA       -14.0920  -24.5160   30.1500 C.3   185  ASN185      0.1688
     22  C        -14.8400  -23.2990   30.6580 C.2   185  ASN185      0.2292
     23  O        -15.8110  -22.8540   30.0420 O.2   185  ASN185     -0.2864
     24  CB       -14.5050  -25.7400   30.9540 C.3   185  ASN185      0.1181
     25  CG       -14.1400  -27.0440   30.2590 C.2   185  ASN185      0.2629
     26  OD1      -14.1450  -27.1390   29.0180 O.2   185  ASN185     -0.2716
     27  ND2      -13.8270  -28.0650   31.0570 N.am  185  ASN185     -0.0877
     28  N        -14.7150  -20.5090   28.2200 N.3   188  SER188     -0.1217
     29  CA       -15.5060  -20.8580   27.0320 C.3   188  SER188      0.1889
     30  C        -16.9830  -20.6140   27.2940 C.2   188  SER188      0.2288
     31  O        -17.6860  -20.0340   26.4680 O.2   188  SER188     -0.2866
     32  CB       -15.2340  -22.2920   26.6050 C.3   188  SER188      0.2089
     33  OG       -13.8980  -22.4060   26.1330 O.3   188  SER188     -0.2183
     34  N        -19.2620  -17.7820   25.2150 N.3   192  GLU192     -0.1245
     35  CA       -20.5130  -18.0800   24.5460 C.3   192  GLU192      0.1567
     36  C        -21.6290  -17.1480   24.9990 C.2   192  GLU192      0.2260
     37  O        -22.3320  -16.5880   24.1710 O.2   192  GLU192     -0.2867
     38  CB       -20.8870  -19.5470   24.7500 C.3   192  GLU192      0.0388
     39  CG       -20.0600  -20.4790   23.8720 C.3   192  GLU192      0.1160
     40  CD       -20.1290  -21.9460   24.2790 C.2   192  GLU192      0.3649
     41  OE1      -20.8260  -22.2780   25.2720 O.co2 192  GLU192     -0.2457
     42  OE2      -19.4650  -22.7720   23.6010 O.co2 192  GLU192     -0.2457
     43  N        -16.4380  -20.7780   18.2010 N.3   210  VAL210     -0.1231
     44  CA       -16.1490  -20.2750   19.5390 C.3   210  VAL210      0.1692
     45  C        -14.6330  -20.0650   19.7190 C.2   210  VAL210      0.2592
     46  O        -14.2000  -19.2700   20.5560 O.2   210  VAL210     -0.2718
     47  CB       -16.7710  -21.1650   20.6370 C.3   210  VAL210      0.0266
     48  CG1      -16.0920  -22.5340   20.6990 C.3   210  VAL210      0.0020
     49  CG2      -16.7030  -20.4510   21.9820 C.3   210  VAL210      0.0020
     50  N        -13.8510  -20.7760   18.9070 N.am  211  SER211     -0.1952
     51  CA       -12.4040  -20.6150   18.8590 C.3   211  SER211      0.1924
     52  C        -11.9900  -20.3820   17.4060 C.2   211  SER211      0.2314
     53  O        -12.1090  -21.2810   16.5750 O.2   211  SER211     -0.2863
     54  CB       -11.6270  -21.8450   19.3540 C.3   211  SER211      0.2116
     55  OG       -10.2280  -21.6550   19.0760 O.3   211  SER211     -0.2180
     56  N         -8.8250  -19.5950   16.6820 N.3   213  ASN213     -0.1240
     57  CA        -7.3610  -19.6980   16.7540 C.3   213  ASN213      0.1653
     58  C         -6.6620  -18.3880   17.1450 C.2   213  ASN213      0.2266
     59  O         -5.4750  -18.2210   16.9230 O.2   213  ASN213     -0.2867
     60  CB        -6.7710  -20.2300   15.4300 C.3   213  ASN213      0.1155
     61  CG        -6.7370  -21.7400   15.3730 C.2   213  ASN213      0.2627
     62  OD1       -7.3200  -22.4270   16.2290 O.2   213  ASN213     -0.2716
     63  ND2       -6.0360  -22.2750   14.3710 N.am  213  ASN213     -0.0877
     64  N         -6.8150  -17.3210   20.2690 N.3   215  CYS215     -0.1235
     65  CA        -6.6180  -17.4290   21.7210 C.3   215  CYS215      0.1677
     66  C         -5.1530  -17.1380   22.1800 C.2   215  CYS215      0.2270
     67  O         -4.9430  -16.2090   22.9390 O.2   215  CYS215     -0.2867
     68  CB        -7.1140  -18.7860   22.2310 C.3   215  CYS215      0.0956
     69  SG        -8.5400  -19.5300   21.2740 S.3   215  CYS215     -0.0801
     70  N         -4.7500  -21.3040   21.5740 N.3   217  ASP217     -0.1225
     71  CA        -4.5720  -22.5180   22.3550 C.3   217  ASP217      0.1805
     72  C         -3.8820  -23.6540   21.6430 C.2   217  ASP217      0.2598
     73  O         -4.3250  -24.0900   20.5800 O.2   217  ASP217     -0.2718
     74  CB        -5.9340  -23.0190   22.8760 C.3   217  ASP217      0.1424
     75  CG        -5.7940  -24.0670   23.9750 C.2   217  ASP217      0.3668
     76  OD1       -4.9300  -23.9080   24.8750 O.co2 217  ASP217     -0.2456
     77  OD2       -6.5490  -25.0560   23.9520 O.co2 217  ASP217     -0.2456
     78  N         -2.8000  -24.1440   22.2530 N.am  218  LYS218     -0.1966
     79  CA        -2.0210  -25.2830   21.7720 C.3   218  LYS218      0.1728
     80  C         -1.3630  -25.2250   20.3970 C.2   218  LYS218      0.2616
     81  O         -1.0380  -26.2530   19.8130 O.2   218  LYS218     -0.2715
     82  CB        -2.8230  -26.5690   21.9300 C.3   218  LYS218      0.0311
     83  CG        -3.1960  -26.9020   23.3720 C.3   218  LYS218      0.0038
     84  CD        -4.4010  -27.8650   23.4610 C.3   218  LYS218      0.0206
     85  CE        -4.7050  -28.2430   24.9350 C.3   218  LYS218      0.1093
     86  NZ        -5.8040  -29.2530   25.1160 N.3   218  LYS218     -0.1314
     87  N         -1.1610  -24.0250   19.8730 N.am  219  LYS219     -0.1977
     88  CA        -0.4400  -23.8580   18.6060 C.3   219  LYS219      0.1596
     89  C          0.5010  -22.6910   18.8710 C.2   219  LYS219      0.2287
     90  O          0.1720  -21.8050   19.6550 O.2   219  LYS219     -0.2864
     91  CB        -1.3770  -23.4700   17.4440 C.3   219  LYS219      0.0298
     92  CG        -2.1070  -24.6350   16.7390 C.3   219  LYS219      0.0038
     93  CD        -3.4500  -24.9450   17.3750 C.3   219  LYS219      0.0206
     94  CE        -4.3410  -23.7120   17.3430 C.3   219  LYS219      0.1093
     95  NZ        -5.6610  -24.0050   17.9700 N.3   219  LYS219     -0.1314
@<TRIPOS>BOND
     1    63    61   am
     2    61    60    1
     3    61    62    2
     4    60    57    1
     5    53    52    2
     6    56    57    1
     7    92    93    1
     8    92    91    1
     9    57    58    1
    10    59    58    2
    11    94    93    1
    12    94    95    1
    13    52    51    1
    14    91    88    1
    15    43    44    1
    16    88    89    1
    17    88    87    1
    18    51    50    1
    19    51    54    1
    20    89    90    2
    21    50    45   am
    22    55    54    1
    23    44    45    1
    24    44    47    1
    25    45    46    2
    26    81    80    2
    27    87    80   am
    28    64    65    1
    29    80    79    1
    30    73    72    2
    31    47    48    1
    32    47    49    1
    33    69    68    1
    34    70    71    1
    35    72    78   am
    36    72    71    1
    37    65    66    1
    38    65    68    1
    39    79    82    1
    40    79    78    1
    41    82    83    1
    42    66    67    2
    43    71    74    1
    44    10     9    1
    45    74    75    1
    46     7     6    1
    47     7     8    1
    48     3     4    2
    49     3     2    1
    50    83    84    1
    51    84    85    1
    52     9     8    2
    53     9    11    1
    54    42    40   ar
    55     6     5    1
    56    39    40    1
    57    39    38    1
    58    77    75   ar
    59    75    76   ar
    60    37    36    2
    61     2     5    1
    62     2     1    1
    63    40    41   ar
    64    35    38    1
    65    35    36    1
    66    35    34    1
    67    85    86    1
    68    33    32    1
    69    31    30    2
    70    18    19    1
    71    18    17    1
    72    32    29    1
    73    29    30    1
    74    29    28    1
    75    17    16    1
    76    16    13    1
    77    15    14    2
    78    26    25    2
    79    14    13    1
    80    14    20   am
    81    13    12    1
    82    23    22    2
    83    21    20    1
    84    21    22    1
    85    21    24    1
    86    25    24    1
    87    25    27   am
