@<TRIPOS>MOLECULE
tmp/1hwkD02.pdb
 112 104 0 0 0
SMALL
GASTEIGER

@<TRIPOS>ATOM
      1  N         13.2550  -39.1840   30.1620 N.3    86  GLU86      -0.1231
      2  CA        14.5260  -38.7390   29.6090 C.3    86  GLU86       0.1699
      3  C         15.6250  -38.8180   30.6650 C.2    86  GLU86       0.2593
      4  O         15.6220  -38.0750   31.6570 O.2    86  GLU86      -0.2718
      5  CB        14.4620  -37.3080   29.0670 C.3    86  GLU86       0.0402
      6  CG        15.8080  -36.8840   28.4660 C.3    86  GLU86       0.1161
      7  CD        15.8200  -35.4930   27.8610 C.2    86  GLU86       0.3649
      8  OE1       14.7740  -34.8140   27.8840 O.co2  86  GLU86      -0.2457
      9  OE2       16.8960  -35.0880   27.3560 O.co2  86  GLU86      -0.2457
     10  N         16.5890  -39.6950   30.4170 N.am   87  GLY87      -0.1942
     11  CA        17.6820  -39.8660   31.3600 C.3    87  GLY87       0.2014
     12  C         18.4950  -38.6150   31.6060 C.2    87  GLY87       0.2639
     13  O         18.7660  -37.8580   30.6860 O.2    87  GLY87      -0.2714
     14  N         18.8730  -38.4150   32.8630 N.am   88  CYS88      -0.1953
     15  CA        19.6750  -37.2780   33.3050 C.3    88  CYS88       0.1843
     16  C         18.9440  -35.9480   33.4410 C.2    88  CYS88       0.2625
     17  O         19.5260  -34.9900   33.9380 O.2    88  CYS88      -0.2714
     18  CB        20.9220  -37.0990   32.4250 C.3    88  CYS88       0.0997
     19  SG        22.1260  -38.4570   32.5090 S.3    88  CYS88      -0.0797
     20  N         17.6750  -35.8910   33.0300 N.am   89  LEU89      -0.1977
     21  CA        16.9160  -34.6490   33.1170 C.3    89  LEU89       0.1596
     22  C         16.7150  -34.1900   34.5530 C.2    89  LEU89       0.2287
     23  O         16.9510  -33.0200   34.8710 O.2    89  LEU89      -0.2864
     24  CB        15.5590  -34.7580   32.3970 C.3    89  LEU89       0.0297
     25  CG        14.6590  -33.5170   32.5120 C.3    89  LEU89       0.0022
     26  CD1       15.4070  -32.2690   32.0030 C.3    89  LEU89       0.0001
     27  CD2       13.3400  -33.7170   31.7630 C.3    89  LEU89       0.0001
     28  N         18.4170  -35.2600   37.1680 N.3    91  ALA91      -0.1231
     29  CA        19.7600  -35.0480   37.7360 C.3    91  ALA91       0.1694
     30  C         20.3050  -33.6770   37.3620 C.2    91  ALA91       0.2592
     31  O         20.7870  -32.9380   38.2280 O.2    91  ALA91      -0.2718
     32  CB        20.7380  -36.1610   37.2680 C.3    91  ALA91       0.0304
     33  N         20.1950  -33.3240   36.0830 N.am   92  SER92      -0.1952
     34  CA        20.6730  -32.0280   35.6120 C.3    92  SER92       0.1924
     35  C         19.8840  -30.8830   36.2660 C.2    92  SER92       0.2314
     36  O         20.4710  -29.9050   36.7250 O.2    92  SER92      -0.2863
     37  CB        20.5850  -31.9510   34.0900 C.3    92  SER92       0.2116
     38  OG        21.2270  -30.7830   33.5910 O.3    92  SER92      -0.2180
     39  N         20.9840  -30.4290   39.8090 N.3    95  ARG95      -0.1245
     40  CA        22.2440  -29.7090   39.8830 C.3    95  ARG95       0.1563
     41  C         21.9940  -28.2050   39.8040 C.2    95  ARG95       0.2260
     42  O         22.6350  -27.4240   40.5230 O.2    95  ARG95      -0.2867
     43  CB        23.1920  -30.1300   38.7550 C.3    95  ARG95       0.0307
     44  CG        24.5580  -29.4420   38.8440 C.3    95  ARG95       0.0489
     45  CD        25.5740  -30.0010   37.8690 C.3    95  ARG95       0.2205
     46  NE        25.3790  -29.4880   36.5160 N.pl3  95  ARG95      -0.0865
     47  CZ        26.3550  -29.3300   35.6250 C.cat  95  ARG95       0.5346
     48  NH1       27.6060  -29.6440   35.9400 N.pl3  95  ARG95       0.1354
     49  NH2       26.0860  -28.8700   34.4050 N.pl3  95  ARG95       0.1354
     50  N         23.5890  -18.9050   21.5180 N.3   262  LYS262     -0.1245
     51  CA        22.6750  -20.0290   21.3430 C.3   262  LYS262      0.1561
     52  C         21.2250  -19.5510   21.5340 C.2   262  LYS262      0.2260
     53  O         20.4380  -19.5570   20.5970 O.2   262  LYS262     -0.2867
     54  CB        22.9880  -21.1440   22.3490 C.3   262  LYS262      0.0271
     55  CG        21.9060  -22.1990   22.5060 C.3   262  LYS262      0.0035
     56  CD        22.1660  -23.0370   23.7610 C.3   262  LYS262      0.0206
     57  CE        21.0820  -24.0970   23.9830 C.3   262  LYS262      0.1093
     58  NZ        21.0950  -25.1510   22.9300 N.3   262  LYS262     -0.1314
     59  N         17.0530  -22.7230   26.2420 N.3   278  ALA278     -0.1231
     60  CA        17.6960  -23.9850   25.9150 C.3   278  ALA278      0.1694
     61  C         16.7490  -25.1860   25.9500 C.2   278  ALA278      0.2592
     62  O         16.6590  -25.9340   24.9710 O.2   278  ALA278     -0.2718
     63  CB        18.9010  -24.2060   26.8420 C.3   278  ALA278      0.0304
     64  N         16.0200  -25.3530   27.0500 N.am  279  HIS279     -0.1976
     65  CA        15.1090  -26.4710   27.1430 C.3   279  HIS279      0.1656
     66  C         13.9890  -26.3060   28.1510 C.2   279  HIS279      0.2291
     67  O         13.6550  -27.2490   28.8660 O.2   279  HIS279     -0.2864
     68  CB        15.8730  -27.7930   27.3540 C.3   279  HIS279      0.0771
     69  CG        16.4640  -27.9530   28.7290 C.ar  279  HIS279      0.0820
     70  ND1       16.4840  -29.1650   29.3900 N.ar  279  HIS279     -0.2267
     71  CD2       17.0410  -27.0580   29.5670 C.ar  279  HIS279      0.1154
     72  CE1       17.0440  -29.0120   30.5720 C.ar  279  HIS279      0.1986
     73  NE2       17.3930  -27.7440   30.7050 N.ar  279  HIS279     -0.2212
     74  N         11.4300  -29.1230   28.4080 N.3   282  ASN282     -0.1240
     75  CA        11.7210  -30.3410   29.1900 C.3   282  ASN282      0.1653
     76  C         11.1750  -30.2140   30.6150 C.2   282  ASN282      0.2266
     77  O         10.5560  -31.1400   31.1300 O.2   282  ASN282     -0.2867
     78  CB        13.2390  -30.6200   29.2660 C.3   282  ASN282      0.1155
     79  CG        13.7340  -31.4450   28.1030 C.2   282  ASN282      0.2627
     80  OD1       12.9580  -32.1250   27.4500 O.2   282  ASN282     -0.2716
     81  ND2       15.0370  -31.4030   27.8480 N.am  282  ASN282     -0.0877
     82  N         21.8750  -25.4250   34.5080 N.3   379  SER379     -0.1202
     83  CA        22.6060  -26.6800   34.3930 C.3   379  SER379      0.2020
     84  C         22.9460  -27.1000   32.9690 C.2   379  SER379      0.2618
     85  O         24.1190  -27.3960   32.6710 O.2   379  SER379     -0.2717
     86  CB        21.8320  -27.7860   35.1140 C.3   379  SER379      0.2103
     87  OG        22.5980  -28.9750   35.1960 O.3   379  SER379     -0.2182
     88  N         21.9470  -27.1290   32.0760 N.am  380  LEU380     -0.1979
     89  CA        22.2230  -27.5160   30.6950 C.3   380  LEU380      0.1596
     90  C         23.1690  -26.5190   30.0250 C.2   380  LEU380      0.2287
     91  O         24.0670  -26.9120   29.2860 O.2   380  LEU380     -0.2864
     92  CB        20.9310  -27.6760   29.8740 C.3   380  LEU380      0.0297
     93  CG        21.1300  -27.9120   28.3690 C.3   380  LEU380      0.0022
     94  CD1       21.9530  -29.1890   28.1590 C.3   380  LEU380      0.0001
     95  CD2       19.7850  -28.0100   27.6300 C.3   380  LEU380      0.0001
     96  N         26.6450  -27.2890   31.0860 N.3   383  ALA383     -0.1231
     97  CA        27.1110  -28.5020   30.4390 C.3   383  ALA383      0.1694
     98  C         27.5150  -28.2510   28.9890 C.2   383  ALA383      0.2591
     99  O         28.4730  -28.8580   28.4930 O.2   383  ALA383     -0.2718
    100  CB        26.0480  -29.5940   30.5250 C.3   383  ALA383      0.0304
    101  N         26.7930  -27.3630   28.3050 N.am  384  LEU384     -0.1980
    102  CA        27.1160  -27.0360   26.9160 C.3   384  LEU384      0.1596
    103  C         28.3710  -26.1710   26.8710 C.2   384  LEU384      0.2287
    104  O         29.1960  -26.3220   25.9780 O.2   384  LEU384     -0.2864
    105  CB        25.9520  -26.2960   26.2250 C.3   384  LEU384      0.0297
    106  CG        24.7060  -27.1470   26.0070 C.3   384  LEU384      0.0022
    107  CD1       23.5220  -26.2960   25.5170 C.3   384  LEU384      0.0001
    108  CD2       25.0340  -28.2510   25.0300 C.3   384  LEU384      0.0001
    109  N         31.3100  -28.4830   27.7980 N.3   387  GLY387     -0.1225
    110  CA        31.5630  -29.5440   26.8330 C.3   387  GLY387      0.1811
    111  C         31.5950  -30.9380   27.4580 C.2   387  GLY387      0.2280
    112  O         31.7960  -31.9280   26.7100 O.2   387  GLY387     -0.2866
@<TRIPOS>BOND
     1    53    52    2
     2    51    50    1
     3    51    52    1
     4    51    54    1
     5    54    55    1
     6    55    56    1
     7    58    57    1
     8    56    57    1
     9    62    61    2
    10   108   106    1
    11   107   106    1
    12    60    61    1
    13    60    59    1
    14    60    63    1
    15    61    64   am
    16   104   103    2
    17   106   105    1
    18   105   102    1
    19   112   111    2
    20   110   111    1
    21   110   109    1
    22   103   102    1
    23   102   101    1
    24    64    65    1
    25    65    68    1
    26    65    66    1
    27    68    69    1
    28     9     7   ar
    29    80    79    2
    30    95    93    1
    31    81    79   am
    32     7     8   ar
    33     7     6    1
    34    79    78    1
    35    66    67    2
    36    94    93    1
    37   101    98   am
    38    93    92    1
    39    74    75    1
    40     6     5    1
    41    99    98    2
    42    69    70   ar
    43    69    71   ar
    44    98    97    1
    45     5     2    1
    46    75    78    1
    47    75    76    1
    48    91    90    2
    49    70    72   ar
    50    71    73   ar
    51     2     1    1
    52     2     3    1
    53    92    89    1
    54    90    89    1
    55    10     3   am
    56    10    11    1
    57    97   100    1
    58    97    96    1
    59    72    73   ar
    60    76    77    2
    61     3     4    2
    62    13    12    2
    63    89    88    1
    64    11    12    1
    65    12    14   am
    66    27    25    1
    67    26    25    1
    68    88    84   am
    69    24    25    1
    70    24    21    1
    71    18    19    1
    72    18    15    1
    73    85    84    2
    74    14    15    1
    75    84    83    1
    76    20    21    1
    77    20    16   am
    78    21    22    1
    79    15    16    1
    80    16    17    2
    81    38    37    1
    82    37    34    1
    83    83    82    1
    84    83    86    1
    85    49    47    1
    86    22    23    2
    87    86    87    1
    88    34    33    1
    89    34    35    1
    90    47    48    1
    91    47    46    2
    92    33    30   am
    93    35    36    2
    94    46    45    1
    95    28    29    1
    96    32    29    1
    97    30    29    1
    98    30    31    2
    99    45    44    1
   100    43    44    1
   101    43    40    1
   102    41    40    1
   103    41    42    2
   104    39    40    1
