@<TRIPOS>MOLECULE
tmp/1hwlD02.pdb
 108 101 0 0 0
SMALL
GASTEIGER

@<TRIPOS>ATOM
      1  N         13.5230  -39.3220   30.2970 N.3    81  GLU81      -0.1231
      2  CA        14.7860  -38.8680   29.7320 C.3    81  GLU81       0.1699
      3  C         15.8760  -38.9340   30.7920 C.2    81  GLU81       0.2593
      4  O         15.8540  -38.1880   31.7740 O.2    81  GLU81      -0.2718
      5  CB        14.6900  -37.4440   29.1890 C.3    81  GLU81       0.0402
      6  CG        15.9860  -37.0050   28.5320 C.3    81  GLU81       0.1161
      7  CD        15.9290  -35.6040   27.9260 C.2    81  GLU81       0.3649
      8  OE1       14.9150  -34.9090   28.1270 O.co2  81  GLU81      -0.2457
      9  OE2       16.9100  -35.2120   27.2470 O.co2  81  GLU81      -0.2457
     10  N         16.8570  -39.7930   30.5550 N.am   82  GLY82      -0.1942
     11  CA        17.9410  -39.9520   31.5070 C.3    82  GLY82       0.2014
     12  C         18.7820  -38.7140   31.7230 C.2    82  GLY82       0.2639
     13  O         19.0710  -37.9880   30.7870 O.2    82  GLY82      -0.2714
     14  N         19.1500  -38.4820   32.9800 N.am   83  CYS83      -0.1953
     15  CA        19.9790  -37.3530   33.3920 C.3    83  CYS83       0.1843
     16  C         19.2660  -36.0180   33.5240 C.2    83  CYS83       0.2625
     17  O         19.8420  -35.0720   34.0490 O.2    83  CYS83      -0.2714
     18  CB        21.2120  -37.2080   32.4950 C.3    83  CYS83       0.0997
     19  SG        22.2990  -38.6770   32.4440 S.3    83  CYS83      -0.0797
     20  N         18.0070  -35.9500   33.0940 N.am   84  LEU84      -0.1977
     21  CA        17.2660  -34.6970   33.1850 C.3    84  LEU84       0.1596
     22  C         17.0440  -34.2790   34.6400 C.2    84  LEU84       0.2287
     23  O         17.2960  -33.1260   35.0040 O.2    84  LEU84      -0.2864
     24  CB        15.9210  -34.7920   32.4470 C.3    84  LEU84       0.0297
     25  CG        14.9960  -33.5860   32.6250 C.3    84  LEU84       0.0022
     26  CD1       15.7010  -32.2950   32.1450 C.3    84  LEU84       0.0001
     27  CD2       13.6580  -33.7970   31.8740 C.3    84  LEU84       0.0001
     28  N         18.6970  -35.3550   37.2370 N.3    86  ALA86      -0.1231
     29  CA        20.0190  -35.1380   37.8380 C.3    86  ALA86       0.1694
     30  C         20.5610  -33.7690   37.4560 C.2    86  ALA86       0.2592
     31  O         21.0630  -33.0240   38.3110 O.2    86  ALA86      -0.2718
     32  CB        21.0050  -36.2310   37.3930 C.3    86  ALA86       0.0304
     33  N         20.4490  -33.4260   36.1780 N.am   87  SER87      -0.1952
     34  CA        20.9330  -32.1260   35.7240 C.3    87  SER87       0.1924
     35  C         20.1730  -30.9750   36.3860 C.2    87  SER87       0.2314
     36  O         20.7760  -29.9810   36.7960 O.2    87  SER87      -0.2863
     37  CB        20.8250  -32.0140   34.2080 C.3    87  SER87       0.2116
     38  OG        21.4090  -30.8030   33.7600 O.3    87  SER87      -0.2180
     39  N         21.2780  -30.4910   39.9020 N.3    90  ARG90      -0.1245
     40  CA        22.5370  -29.7720   39.9860 C.3    90  ARG90       0.1563
     41  C         22.2840  -28.2720   39.8920 C.2    90  ARG90       0.2260
     42  O         22.9290  -27.4760   40.5990 O.2    90  ARG90      -0.2867
     43  CB        23.5070  -30.1880   38.8810 C.3    90  ARG90       0.0307
     44  CG        24.8280  -29.4080   38.9610 C.3    90  ARG90       0.0489
     45  CD        25.8790  -29.9380   38.0310 C.3    90  ARG90       0.2205
     46  NE        25.5970  -29.5840   36.6440 N.pl3  90  ARG90      -0.0865
     47  CZ        26.5300  -29.4770   35.7010 C.cat  90  ARG90       0.5346
     48  NH1       27.8090  -29.6990   36.0080 N.pl3  90  ARG90       0.1354
     49  NH2       26.2020  -29.1280   34.4570 N.pl3  90  ARG90       0.1354
     50  N         23.7930  -19.0290   21.5700 N.3   257  LYS257     -0.1245
     51  CA        22.8930  -20.1610   21.4240 C.3   257  LYS257      0.1561
     52  C         21.4460  -19.6890   21.6060 C.2   257  LYS257      0.2260
     53  O         20.6360  -19.7310   20.6780 O.2   257  LYS257     -0.2867
     54  CB        23.1980  -21.2360   22.4730 C.3   257  LYS257      0.0271
     55  CG        22.1600  -22.3400   22.5870 C.3   257  LYS257      0.0035
     56  CD        22.4670  -23.2540   23.7720 C.3   257  LYS257      0.0206
     57  CE        21.3800  -24.3150   23.9900 C.3   257  LYS257      0.1093
     58  NZ        21.3140  -25.2790   22.8620 N.3   257  LYS257     -0.1314
     59  N         17.3020  -22.8970   26.3350 N.3   273  ALA273     -0.1231
     60  CA        17.9630  -24.1340   25.9720 C.3   273  ALA273      0.1694
     61  C         17.0250  -25.3410   26.0110 C.2   273  ALA273      0.2592
     62  O         16.9100  -26.0680   25.0230 O.2   273  ALA273     -0.2718
     63  CB        19.1960  -24.3460   26.8630 C.3   273  ALA273      0.0304
     64  N         16.3160  -25.5250   27.1140 N.am  274  HIS274     -0.1976
     65  CA        15.4000  -26.6480   27.1800 C.3   274  HIS274      0.1656
     66  C         14.2780  -26.4970   28.1850 C.2   274  HIS274      0.2291
     67  O         13.9460  -27.4230   28.8880 O.2   274  HIS274     -0.2864
     68  CB        16.1690  -27.9670   27.3890 C.3   274  HIS274      0.0771
     69  CG        16.7780  -28.1100   28.7570 C.ar  274  HIS274      0.0820
     70  ND1       16.8820  -29.3260   29.3990 N.ar  274  HIS274     -0.2267
     71  CD2       17.3030  -27.1910   29.6020 C.ar  274  HIS274      0.1154
     72  CE1       17.4400  -29.1490   30.5770 C.ar  274  HIS274      0.1986
     73  NE2       17.7050  -27.8650   30.7260 N.ar  274  HIS274     -0.2212
     74  N         11.6230  -29.2730   28.5090 N.3   277  ASN277     -0.1240
     75  CA        11.9390  -30.4820   29.2730 C.3   277  ASN277      0.1653
     76  C         11.4260  -30.3840   30.6820 C.2   277  ASN277      0.2266
     77  O         10.8290  -31.3320   31.2060 O.2   277  ASN277     -0.2867
     78  CB        13.4600  -30.7180   29.3360 C.3   277  ASN277      0.1155
     79  CG        13.9500  -31.5800   28.2130 C.2   277  ASN277      0.2627
     80  OD1       13.1590  -32.2760   27.5660 O.2   277  ASN277     -0.2716
     81  ND2       15.2540  -31.5600   27.9730 N.am  277  ASN277     -0.0877
     82  N         22.1140  -25.5180   34.6240 N.3   374  SER374     -0.1202
     83  CA        22.8690  -26.7510   34.5120 C.3   374  SER374      0.2020
     84  C         23.2150  -27.1790   33.0960 C.2   374  SER374      0.2618
     85  O         24.3770  -27.5230   32.8170 O.2   374  SER374     -0.2717
     86  CB        22.1530  -27.8750   35.2500 C.3   374  SER374      0.2103
     87  OG        22.9790  -29.0290   35.2780 O.3   374  SER374     -0.2182
     88  N         22.2310  -27.1790   32.1930 N.am  375  LEU375     -0.1979
     89  CA        22.5180  -27.5720   30.8170 C.3   375  LEU375      0.1596
     90  C         23.4450  -26.5810   30.1180 C.2   375  LEU375      0.2287
     91  O         24.3340  -26.9780   29.3740 O.2   375  LEU375     -0.2864
     92  CB        21.2380  -27.7720   30.0080 C.3   375  LEU375      0.0297
     93  CG        21.4700  -28.1410   28.5330 C.3   375  LEU375      0.0022
     94  CD1       22.2300  -29.4610   28.4540 C.3   375  LEU375      0.0001
     95  CD2       20.1300  -28.2470   27.7860 C.3   375  LEU375      0.0001
     96  N         26.9270  -27.3220   31.1590 N.3   378  ALA378     -0.1231
     97  CA        27.4140  -28.5130   30.4920 C.3   378  ALA378      0.1694
     98  C         27.7940  -28.2480   29.0410 C.2   378  ALA378      0.2591
     99  O         28.7620  -28.8360   28.5410 O.2   378  ALA378     -0.2718
    100  CB        26.3960  -29.6420   30.5950 C.3   378  ALA378      0.0304
    101  N         27.0550  -27.3660   28.3600 N.am  379  LEU379     -0.1980
    102  CA        27.3590  -27.0390   26.9610 C.3   379  LEU379      0.1596
    103  C         28.5740  -26.1440   26.8900 C.2   379  LEU379      0.2287
    104  O         29.3150  -26.1640   25.9140 O.2   379  LEU379     -0.2864
    105  CB        26.1710  -26.3380   26.2690 C.3   379  LEU379      0.0297
    106  CG        24.9480  -27.2410   26.0540 C.3   379  LEU379      0.0022
    107  CD1       23.7240  -26.4510   25.5730 C.3   379  LEU379      0.0001
    108  CD2       25.2850  -28.3230   25.0690 C.3   379  LEU379      0.0001
@<TRIPOS>BOND
     1    53    52    2
     2    51    50    1
     3    51    52    1
     4    51    54    1
     5    54    55    1
     6    55    56    1
     7    58    57    1
     8    56    57    1
     9    62    61    2
    10   108   106    1
    11   107   106    1
    12   104   103    2
    13    60    61    1
    14    60    59    1
    15    60    63    1
    16    61    64   am
    17   106   105    1
    18   105   102    1
    19   103   102    1
    20   102   101    1
    21    64    65    1
    22    65    68    1
    23    65    66    1
    24     9     7   ar
    25    68    69    1
    26    80    79    2
    27    95    93    1
    28     7     8   ar
    29     7     6    1
    30    81    79   am
    31    66    67    2
    32    79    78    1
    33   101    98   am
    34    94    93    1
    35    74    75    1
    36     6     5    1
    37    93    92    1
    38    99    98    2
    39    69    70   ar
    40    69    71   ar
    41    98    97    1
    42     5     2    1
    43    75    78    1
    44    75    76    1
    45    91    90    2
    46    70    72   ar
    47    71    73   ar
    48     2     1    1
    49     2     3    1
    50    92    89    1
    51    90    89    1
    52    97   100    1
    53    97    96    1
    54    10     3   am
    55    10    11    1
    56    72    73   ar
    57    76    77    2
    58    13    12    2
    59     3     4    2
    60    89    88    1
    61    11    12    1
    62    12    14   am
    63    27    25    1
    64    26    25    1
    65    88    84   am
    66    19    18    1
    67    24    25    1
    68    24    21    1
    69    18    15    1
    70    85    84    2
    71    14    15    1
    72    20    21    1
    73    20    16   am
    74    84    83    1
    75    21    22    1
    76    15    16    1
    77    16    17    2
    78    38    37    1
    79    37    34    1
    80    49    47    1
    81    83    82    1
    82    83    86    1
    83    22    23    2
    84    86    87    1
    85    47    48    1
    86    47    46    2
    87    34    33    1
    88    34    35    1
    89    33    30   am
    90    35    36    2
    91    46    45    1
    92    28    29    1
    93    32    29    1
    94    30    29    1
    95    30    31    2
    96    45    44    1
    97    43    44    1
    98    43    40    1
    99    41    40    1
   100    41    42    2
   101    39    40    1
