@<TRIPOS>MOLECULE
tmp/1hwlD01.pdb
 87 79 0 0 0
SMALL
GASTEIGER

@<TRIPOS>ATOM
      1  N         -9.4730  -17.0520   25.4200 N.3   112  ARG112     -0.1245
      2  CA       -10.2280  -17.7980   24.4030 C.3   112  ARG112      0.1563
      3  C        -10.4250  -16.7500   23.3050 C.2   112  ARG112      0.2260
      4  O        -10.7860  -15.6080   23.5950 O.2   112  ARG112     -0.2867
      5  CB       -11.5720  -18.3080   24.9370 C.3   112  ARG112      0.0307
      6  CG       -12.3560  -19.1850   23.9280 C.3   112  ARG112      0.0489
      7  CD       -11.5230  -20.3020   23.3110 C.3   112  ARG112      0.2205
      8  NE       -11.5990  -21.5740   24.0230 N.pl3 112  ARG112     -0.0865
      9  CZ       -10.7940  -22.6150   23.8040 C.cat 112  ARG112      0.5346
     10  NH1       -9.8140  -22.5460   22.9070 N.pl3 112  ARG112      0.1354
     11  NH2      -11.0450  -23.7760   24.4130 N.pl3 112  ARG112      0.1354
     12  N         -9.6720  -23.0700   30.9920 N.3   179  MET179     -0.1245
     13  CA       -10.1960  -23.1630   29.6360 C.3   179  MET179      0.1570
     14  C        -11.7140  -23.3370   29.5790 C.2   179  MET179      0.2261
     15  O        -12.3900  -22.5920   28.8800 O.2   179  MET179     -0.2867
     16  CB        -9.4950  -24.2840   28.8690 C.3   179  MET179      0.0387
     17  CG        -8.1530  -23.8690   28.2690 C.3   179  MET179      0.0595
     18  SD        -8.3230  -23.2710   26.5330 S.3   179  MET179     -0.1393
     19  CE        -9.1210  -21.6650   26.8210 C.3   179  MET179      0.0692
     20  N        -14.3960  -20.5220   28.3250 N.3   183  SER183     -0.1217
     21  CA       -15.2300  -20.8770   27.1730 C.3   183  SER183      0.1889
     22  C        -16.7030  -20.5880   27.4600 C.2   183  SER183      0.2288
     23  O        -17.3920  -19.9880   26.6330 O.2   183  SER183     -0.2866
     24  CB       -15.0320  -22.3360   26.7770 C.3   183  SER183      0.2089
     25  OG       -13.7310  -22.5360   26.2630 O.3   183  SER183     -0.2183
     26  N        -19.0090  -17.8670   25.4260 N.3   187  GLU187     -0.1245
     27  CA       -20.2610  -18.2030   24.7420 C.3   187  GLU187      0.1567
     28  C        -21.3820  -17.2600   25.1620 C.2   187  GLU187      0.2260
     29  O        -22.0860  -16.7040   24.3150 O.2   187  GLU187     -0.2867
     30  CB       -20.6460  -19.6610   24.9930 C.3   187  GLU187      0.0388
     31  CG       -19.6960  -20.6420   24.3210 C.3   187  GLU187      0.1160
     32  CD       -20.1120  -22.1130   24.4720 C.2   187  GLU187      0.3649
     33  OE1      -20.0500  -22.6550   25.6150 O.co2 187  GLU187     -0.2457
     34  OE2      -20.4860  -22.7310   23.4350 O.co2 187  GLU187     -0.2457
     35  N        -16.1660  -20.8700   18.4060 N.3   205  VAL205     -0.1231
     36  CA       -15.8590  -20.3730   19.7450 C.3   205  VAL205      0.1692
     37  C        -14.3320  -20.1870   19.9040 C.2   205  VAL205      0.2592
     38  O        -13.8780  -19.4350   20.7470 O.2   205  VAL205     -0.2718
     39  CB       -16.4840  -21.2580   20.8480 C.3   205  VAL205      0.0266
     40  CG1      -16.0780  -20.7420   22.2550 C.3   205  VAL205      0.0020
     41  CG2      -18.0080  -21.1820   20.7450 C.3   205  VAL205      0.0020
     42  N        -13.5620  -20.8850   19.0770 N.am  206  SER206     -0.1952
     43  CA       -12.1260  -20.7110   19.0300 C.3   206  SER206      0.1924
     44  C        -11.7190  -20.4990   17.5700 C.2   206  SER206      0.2314
     45  O        -11.8120  -21.4070   16.7490 O.2   206  SER206     -0.2863
     46  CB       -11.3430  -21.9010   19.5920 C.3   206  SER206      0.2116
     47  OG        -9.9390  -21.7190   19.3300 O.3   206  SER206     -0.2180
     48  N         -8.6560  -19.7130   16.8620 N.3   208  ASN208     -0.1240
     49  CA        -7.1890  -19.8450   16.9530 C.3   208  ASN208      0.1653
     50  C         -6.4750  -18.5470   17.3310 C.2   208  ASN208      0.2266
     51  O         -5.2650  -18.3810   17.1040 O.2   208  ASN208     -0.2867
     52  CB        -6.5870  -20.3740   15.6530 C.3   208  ASN208      0.1155
     53  CG        -6.5350  -21.8940   15.6060 C.2   208  ASN208      0.2627
     54  OD1       -7.0650  -22.5790   16.4880 O.2   208  ASN208     -0.2716
     55  ND2       -5.8760  -22.4280   14.5840 N.am  208  ASN208     -0.0877
     56  N         -6.6110  -17.5040   20.4640 N.3   210  CYS210     -0.1235
     57  CA        -6.4220  -17.5930   21.9210 C.3   210  CYS210      0.1677
     58  C         -4.9690  -17.3160   22.3560 C.2   210  CYS210      0.2270
     59  O         -4.7560  -16.3810   23.0860 O.2   210  CYS210     -0.2867
     60  CB        -6.9290  -18.9420   22.4790 C.3   210  CYS210      0.0956
     61  SG        -8.3320  -19.7340   21.5200 S.3   210  CYS210     -0.0801
     62  N         -4.5340  -21.4700   21.8090 N.3   212  ASP212     -0.1225
     63  CA        -4.3480  -22.6720   22.6260 C.3   212  ASP212      0.1805
     64  C         -3.6640  -23.8180   21.9060 C.2   212  ASP212      0.2598
     65  O         -4.1150  -24.2450   20.8270 O.2   212  ASP212     -0.2718
     66  CB        -5.7100  -23.1340   23.1570 C.3   212  ASP212      0.1424
     67  CG        -5.5970  -24.2330   24.2290 C.2   212  ASP212      0.3668
     68  OD1       -4.7600  -24.1130   25.1640 O.co2 212  ASP212     -0.2456
     69  OD2       -6.3580  -25.2290   24.1380 O.co2 212  ASP212     -0.2456
     70  N         -2.5560  -24.2980   22.4940 N.am  213  LYS213     -0.1966
     71  CA        -1.7860  -25.4270   21.9940 C.3   213  LYS213      0.1728
     72  C         -1.1710  -25.3740   20.5930 C.2   213  LYS213      0.2616
     73  O         -0.8790  -26.4160   20.0060 O.2   213  LYS213     -0.2715
     74  CB        -2.5820  -26.7060   22.1690 C.3   213  LYS213      0.0311
     75  CG        -2.8950  -27.0270   23.6140 C.3   213  LYS213      0.0038
     76  CD        -3.9840  -28.0900   23.7160 C.3   213  LYS213      0.0206
     77  CE        -4.4380  -28.2580   25.1670 C.3   213  LYS213      0.1093
     78  NZ        -5.4200  -29.3540   25.3780 N.3   213  LYS213     -0.1314
     79  N         -0.9810  -24.1720   20.0530 N.am  214  LYS214     -0.1977
     80  CA        -0.2920  -24.0040   18.7690 C.3   214  LYS214      0.1596
     81  C          0.6750  -22.8570   19.0260 C.2   214  LYS214      0.2287
     82  O          0.3650  -21.9620   19.8150 O.2   214  LYS214     -0.2864
     83  CB        -1.2580  -23.5860   17.6510 C.3   214  LYS214      0.0298
     84  CG        -2.0430  -24.7630   17.0120 C.3   214  LYS214      0.0038
     85  CD        -3.3440  -25.0370   17.7320 C.3   214  LYS214      0.0206
     86  CE        -4.2690  -23.8410   17.5800 C.3   214  LYS214      0.1093
     87  NZ        -5.5710  -24.1480   18.1970 N.3   214  LYS214     -0.1314
@<TRIPOS>BOND
     1    55    53   am
     2    53    52    1
     3    53    54    2
     4    52    49    1
     5    45    44    2
     6    48    49    1
     7    49    50    1
     8    84    83    1
     9    84    85    1
    10    51    50    2
    11    44    43    1
    12    86    85    1
    13    86    87    1
    14    83    80    1
    15    35    36    1
    16    80    81    1
    17    80    79    1
    18    81    82    2
    19    43    42    1
    20    43    46    1
    21    42    37   am
    22    47    46    1
    23    36    37    1
    24    36    39    1
    25    37    38    2
    26    73    72    2
    27    79    72   am
    28    56    57    1
    29    72    71    1
    30    41    39    1
    31    65    64    2
    32    39    40    1
    33    61    60    1
    34    62    63    1
    35    64    70   am
    36    64    63    1
    37    57    58    1
    38    57    60    1
    39    71    74    1
    40    71    70    1
    41    74    75    1
    42    58    59    2
    43    63    66    1
    44    10     9    1
    45    66    67    1
    46     3     4    2
    47     3     2    1
    48     7     6    1
    49     7     8    1
    50    34    32   ar
    51    75    76    1
    52    76    77    1
    53     9     8    2
    54     9    11    1
    55     6     5    1
    56    69    67   ar
    57    67    68   ar
    58    29    28    2
    59    31    32    1
    60    31    30    1
    61     2     5    1
    62     2     1    1
    63    32    33   ar
    64    27    30    1
    65    27    28    1
    66    27    26    1
    67    77    78    1
    68    25    24    1
    69    18    19    1
    70    18    17    1
    71    23    22    2
    72    24    21    1
    73    21    22    1
    74    21    20    1
    75    17    16    1
    76    16    13    1
    77    15    14    2
    78    14    13    1
    79    13    12    1
