@<TRIPOS>MOLECULE
tmp/1hwmB01.pdb
 89 85 0 0 0
SMALL
GASTEIGER

@<TRIPOS>ATOM
      1  N         34.5960   16.7010   94.1140 N.3    22  ASP22      -0.1225
      2  CA        35.4030   17.8650   94.4560 C.3    22  ASP22       0.1805
      3  C         34.9870   19.0980   93.6640 C.2    22  ASP22       0.2598
      4  O         34.5610   18.9950   92.5140 O.2    22  ASP22      -0.2718
      5  CB        36.8800   17.5740   94.1940 C.3    22  ASP22       0.1424
      6  CG        37.2620   17.7770   92.7430 C.2    22  ASP22       0.3668
      7  OD1       36.9590   16.8910   91.9200 O.co2  22  ASP22      -0.2456
      8  OD2       37.8600   18.8250   92.4260 O.co2  22  ASP22      -0.2456
      9  N         35.1240   20.2620   94.2910 N.am   23  VAL23      -0.1966
     10  CA        34.7700   21.5280   93.6570 C.3    23  VAL23       0.1727
     11  C         35.7540   21.8500   92.5370 C.2    23  VAL23       0.2616
     12  O         36.9680   21.8060   92.7320 O.2    23  VAL23      -0.2715
     13  CB        34.7780   22.6810   94.6830 C.3    23  VAL23       0.0290
     14  CG1       33.9460   23.8380   94.1690 C.3    23  VAL23       0.0023
     15  CG2       34.2320   22.1960   96.0160 C.3    23  VAL23       0.0023
     16  N         35.2200   22.1780   91.3660 N.am   24  ARG24      -0.1963
     17  CA        36.0320   22.4960   90.1950 C.3    24  ARG24       0.1729
     18  C         37.2050   23.4400   90.4680 C.2    24  ARG24       0.2616
     19  O         37.0270   24.5360   90.9970 O.2    24  ARG24      -0.2715
     20  CB        35.1450   23.1010   89.1020 C.3    24  ARG24       0.0348
     21  CG        35.5200   22.6870   87.6900 C.3    24  ARG24       0.0492
     22  CD        34.2990   22.6590   86.7840 C.3    24  ARG24       0.2205
     23  NE        33.6100   23.9480   86.7430 N.pl3  24  ARG24      -0.0865
     24  CZ        32.9330   24.3960   85.6910 C.cat  24  ARG24       0.5346
     25  NH1       32.8500   23.6630   84.5890 N.pl3  24  ARG24       0.1354
     26  NH2       32.3340   25.5800   85.7410 N.pl3  24  ARG24       0.1354
     27  N         38.4030   22.9980   90.0990 N.am   25  ASN25      -0.1958
     28  CA        39.6170   23.7910   90.2640 C.3    25  ASN25       0.1819
     29  C         39.8510   24.3560   91.6620 C.2    25  ASN25       0.2621
     30  O         40.6770   25.2510   91.8460 O.2    25  ASN25      -0.2715
     31  CB        39.6240   24.9280   89.2410 C.3    25  ASN25       0.1195
     32  CG        39.3860   24.4370   87.8270 C.2    25  ASN25       0.2630
     33  OD1       38.7240   23.4200   87.6090 O.2    25  ASN25      -0.2716
     34  ND2       39.9250   25.1540   86.8510 N.am   25  ASN25      -0.0877
     35  N         39.1250   23.8340   92.6430 N.am   26  GLY26      -0.1954
     36  CA        39.2900   24.2980   94.0070 C.3    26  GLY26       0.1869
     37  C         38.9040   25.7490   94.2250 C.2    26  GLY26       0.2309
     38  O         39.4210   26.4010   95.1320 O.2    26  GLY26      -0.2863
     39  N         31.9850   18.3610   90.7840 N.3    35  GLN35      -0.1245
     40  CA        32.3330   17.3600   89.7810 C.3    35  GLN35       0.1566
     41  C         33.1100   16.1670   90.3350 C.2    35  GLN35       0.2260
     42  O         33.4490   16.1210   91.5160 O.2    35  GLN35      -0.2867
     43  CB        33.1270   18.0310   88.6490 C.3    35  GLN35       0.0367
     44  CG        34.5120   17.4510   88.3970 C.3    35  GLN35       0.0905
     45  CD        35.6260   18.4540   88.6130 C.2    35  GLN35       0.2608
     46  OE1       35.6140   19.5450   88.0460 O.2    35  GLN35      -0.2717
     47  NE2       36.6000   18.0850   89.4330 N.am   35  GLN35      -0.0878
     48  N         36.4680   13.5650   90.2930 N.3    37  TRP37      -0.1241
     49  CA        37.9080   13.6700   90.0920 C.3    37  TRP37       0.1605
     50  C         38.6140   12.6310   90.9530 C.2    37  TRP37       0.2264
     51  O         38.1770   12.3450   92.0670 O.2    37  TRP37      -0.2867
     52  CB        38.3790   15.0710   90.4840 C.3    37  TRP37       0.0550
     53  CG        39.7870   15.4000   90.0940 C.ar   37  TRP37       0.0003
     54  CD1       40.9020   15.2920   90.8750 C.ar   37  TRP37       0.0946
     55  CD2       40.2270   15.9360   88.8380 C.ar   37  TRP37       0.0152
     56  NE1       42.0080   15.7320   90.1870 N.ar   37  TRP37      -0.2442
     57  CE2       41.6240   16.1310   88.9370 C.ar   37  TRP37       0.0810
     58  CE3       39.5780   16.2720   87.6440 C.ar   37  TRP37       0.0012
     59  CZ2       42.3820   16.6500   87.8810 C.ar   37  TRP37       0.0191
     60  CZ3       40.3330   16.7870   86.5940 C.ar   37  TRP37       0.0001
     61  CH2       41.7210   16.9710   86.7220 C.ar   37  TRP37       0.0015
     62  N         43.8100   17.0520   98.1750 N.3    42  GLN42      -0.1245
     63  CA        43.3440   18.4180   97.9350 C.3    42  GLN42       0.1566
     64  C         42.1920   18.8180   98.8520 C.2    42  GLN42       0.2260
     65  O         41.1240   18.2100   98.8190 O.2    42  GLN42      -0.2867
     66  CB        42.9190   18.5840   96.4710 C.3    42  GLN42       0.0367
     67  CG        42.3220   17.3330   95.8390 C.3    42  GLN42       0.0905
     68  CD        43.3770   16.3430   95.3750 C.2    42  GLN42       0.2608
     69  OE1       43.0580   15.2700   94.8660 O.2    42  GLN42      -0.2717
     70  NE2       44.6450   16.7020   95.5510 N.am   42  GLN42      -0.0878
     71  N         39.9100   20.8620   98.7700 N.3    44  ASN44      -0.1240
     72  CA        38.6000   21.0580   98.1490 C.3    44  ASN44       0.1653
     73  C         37.8320   19.7520   97.9660 C.2    44  ASN44       0.2266
     74  O         36.6450   19.7610   97.6370 O.2    44  ASN44      -0.2867
     75  CB        38.7540   21.7600   96.7960 C.3    44  ASN44       0.1155
     76  CG        39.3450   20.8550   95.7340 C.2    44  ASN44       0.2627
     77  OD1       40.4140   20.2780   95.9220 O.2    44  ASN44      -0.2716
     78  ND2       38.6500   20.7310   94.6130 N.am   44  ASN44      -0.0877
     79  N         35.6840   14.9700   85.8180 N.3   113  ARG113     -0.1245
     80  CA        35.3170   16.2910   85.3020 C.3   113  ARG113      0.1563
     81  C         33.8000   16.3640   85.1830 C.2   113  ARG113      0.2260
     82  O         33.2220   17.4460   85.0820 O.2   113  ARG113     -0.2867
     83  CB        35.9480   16.5560   83.9320 C.3   113  ARG113      0.0307
     84  CG        36.5920   17.9190   83.7970 C.3   113  ARG113      0.0489
     85  CD        38.0540   17.8010   83.4080 C.3   113  ARG113      0.2205
     86  NE        38.8430   18.9100   83.9350 N.pl3 113  ARG113     -0.0865
     87  CZ        40.1660   18.9930   83.8450 C.cat 113  ARG113      0.5346
     88  NH1       40.8520   18.0290   83.2480 N.pl3 113  ARG113      0.1354
     89  NH2       40.8030   20.0400   84.3510 N.pl3 113  ARG113      0.1354
@<TRIPOS>BOND
     1    88    87    1
     2    85    84    1
     3    85    86    1
     4    84    83    1
     5    87    86    2
     6    87    89    1
     7    83    80    1
     8    25    24    1
     9    82    81    2
    10    81    80    1
    11    80    79    1
    12    24    26    1
    13    24    23    2
    14    60    61   ar
    15    60    58   ar
    16    61    59   ar
    17    23    22    1
    18    22    21    1
    19    34    32   am
    20    33    32    2
    21    58    55   ar
    22    21    20    1
    23    32    31    1
    24    59    57   ar
    25    46    45    2
    26    44    45    1
    27    44    43    1
    28    45    47   am
    29    43    40    1
    30    55    57   ar
    31    55    53   ar
    32    57    56   ar
    33    20    17    1
    34    31    28    1
    35    40    41    1
    36    40    39    1
    37    49    48    1
    38    49    52    1
    39    49    50    1
    40    53    52    1
    41    53    54   ar
    42    27    28    1
    43    27    18   am
    44    56    54   ar
    45    17    18    1
    46    17    16    1
    47    28    29    1
    48    41    42    2
    49    18    19    2
    50    50    51    2
    51    16    11   am
    52    29    30    2
    53    29    35   am
    54     7     6   ar
    55     8     6   ar
    56     4     3    2
    57    11    12    2
    58    11    10    1
    59    35    36    1
    60     6     5    1
    61    10     9    1
    62    10    13    1
    63     3     9   am
    64     3     2    1
    65    36    37    1
    66     1     2    1
    67    14    13    1
    68     5     2    1
    69    37    38    2
    70    78    76   am
    71    13    15    1
    72    69    68    2
    73    68    70   am
    74    68    67    1
    75    76    77    2
    76    76    75    1
    77    67    66    1
    78    66    63    1
    79    75    72    1
    80    74    73    2
    81    63    62    1
    82    63    64    1
    83    73    72    1
    84    72    71    1
    85    65    64    2
