@<TRIPOS>MOLECULE
tmp/1hwnB02.pdb
 90 85 0 0 0
SMALL
GASTEIGER

@<TRIPOS>ATOM
      1  N          5.5130   76.1450   80.9960 N.3   234  ASP234     -0.1225
      2  CA         5.2780   75.6480   79.6450 C.3   234  ASP234      0.1805
      3  C          5.1720   76.7740   78.6230 C.2   234  ASP234      0.2598
      4  O          5.5180   77.9230   78.9040 O.2   234  ASP234     -0.2718
      5  CB         3.9890   74.8210   79.6230 C.3   234  ASP234      0.1424
      6  CG         2.8210   75.5490   80.2630 C.2   234  ASP234      0.3668
      7  OD1        2.7210   76.7840   80.0940 O.co2 234  ASP234     -0.2456
      8  OD2        2.0060   74.8870   80.9380 O.co2 234  ASP234     -0.2456
      9  N          4.6940   76.4260   77.4320 N.am  235  VAL235     -0.1966
     10  CA         4.5190   77.3880   76.3500 C.3   235  VAL235      0.1727
     11  C          3.0280   77.6110   76.1210 C.2   235  VAL235      0.2616
     12  O          2.2730   76.6610   75.9000 O.2   235  VAL235     -0.2715
     13  CB         5.1520   76.8840   75.0330 C.3   235  VAL235      0.0290
     14  CG1        5.9850   77.9860   74.4040 C.3   235  VAL235      0.0023
     15  CG2        6.0120   75.6560   75.3010 C.3   235  VAL235      0.0023
     16  N          2.6110   78.8710   76.1750 N.am  236  LYS236     -0.1963
     17  CA         1.2120   79.2300   75.9850 C.3   236  LYS236      0.1728
     18  C          0.6020   78.6480   74.7130 C.2   236  LYS236      0.2616
     19  O          1.1600   78.7800   73.6240 O.2   236  LYS236     -0.2715
     20  CB         1.0600   80.7520   75.9710 C.3   236  LYS236      0.0311
     21  CG        -0.3820   81.2210   76.0250 C.3   236  LYS236      0.0038
     22  CD        -0.4750   82.7090   76.3140 C.3   236  LYS236      0.0206
     23  CE        -1.7620   83.2850   75.7520 C.3   236  LYS236      0.1093
     24  NZ        -1.7020   84.7670   75.6020 N.3   236  LYS236     -0.1314
     25  N         -0.5500   78.0020   74.8670 N.am  237  GLU237     -0.1963
     26  CA        -1.2680   77.4010   73.7470 C.3   237  GLU237      0.1733
     27  C         -0.3790   76.5570   72.8410 C.2   237  GLU237      0.2617
     28  O         -0.6720   76.3900   71.6570 O.2   237  GLU237     -0.2715
     29  CB        -1.9500   78.4930   72.9180 C.3   237  GLU237      0.0429
     30  CG        -2.5260   79.6300   73.7440 C.3   237  GLU237      0.1163
     31  CD        -4.0190   79.4920   73.9630 C.2   237  GLU237      0.3649
     32  OE1       -4.5000   78.3460   74.0900 O.co2 237  GLU237     -0.2457
     33  OE2       -4.7110   80.5300   74.0130 O.co2 237  GLU237     -0.2457
     34  N          0.7070   76.0280   73.3930 N.am  238  SER238     -0.1950
     35  CA         1.6270   75.2000   72.6210 C.3   238  SER238      0.1924
     36  C          2.1710   75.9750   71.4260 C.2   238  SER238      0.2314
     37  O          2.8410   75.4130   70.5580 O.2   238  SER238     -0.2863
     38  CB         0.9180   73.9330   72.1360 C.3   238  SER238      0.2116
     39  OG         1.3010   72.8070   72.9050 O.3   238  SER238     -0.2180
     40  N          4.5070   80.3740   80.5290 N.3   246  ILE246     -0.1245
     41  CA         3.7230   80.5900   81.7420 C.3   246  ILE246      0.1561
     42  C          3.6090   79.3740   82.6590 C.2   246  ILE246      0.2260
     43  O          4.2240   78.3340   82.4180 O.2   246  ILE246     -0.2867
     44  CB         2.2970   81.0540   81.3840 C.3   246  ILE246      0.0252
     45  CG1        1.6320   80.0260   80.4690 C.3   246  ILE246      0.0019
     46  CG2        2.3460   82.4090   80.6940 C.3   246  ILE246      0.0019
     47  CD1        0.4040   79.3760   81.0700 C.3   246  ILE246      0.0001
     48  N          1.1390   76.5430   84.2990 N.3   248  PHE248     -0.1241
     49  CA        -0.1350   75.8680   84.0720 C.3   248  PHE248      0.1605
     50  C         -0.1300   74.4470   84.6340 C.2   248  PHE248      0.2264
     51  O          0.8640   73.7300   84.5210 O.2   248  PHE248     -0.2867
     52  CB        -0.4390   75.8230   82.5710 C.3   248  PHE248      0.0534
     53  CG        -1.8980   75.6620   82.2500 C.ar  248  PHE248     -0.0203
     54  CD1       -2.7660   76.7460   82.3370 C.ar  248  PHE248     -0.0042
     55  CD2       -2.4060   74.4270   81.8570 C.ar  248  PHE248     -0.0042
     56  CE1       -4.1190   76.6030   82.0380 C.ar  248  PHE248     -0.0003
     57  CE2       -3.7570   74.2730   81.5560 C.ar  248  PHE248     -0.0003
     58  CZ        -4.6150   75.3640   81.6470 C.ar  248  PHE248     -0.0000
     59  N         -0.5240   68.9120   82.6180 N.3   251  THR251     -0.1218
     60  CA        -1.4360   68.3050   81.6570 C.3   251  THR251      0.1862
     61  C         -0.7860   67.0700   81.0500 C.2   251  THR251      0.2287
     62  O         -1.4690   66.1760   80.5460 O.2   251  THR251     -0.2866
     63  CB        -1.7750   69.2810   80.5190 C.3   251  THR251      0.1770
     64  OG1       -0.6640   69.3680   79.6190 O.3   251  THR251     -0.2211
     65  CG2       -2.0810   70.6610   81.0770 C.3   251  THR251      0.0375
     66  N          1.2140   67.2050   78.5130 N.3   253  ASN253     -0.1240
     67  CA         1.4010   67.4550   77.0890 C.3   253  ASN253      0.1653
     68  C          2.8060   67.9710   76.7860 C.2   253  ASN253      0.2266
     69  O          3.3910   68.7080   77.5780 O.2   253  ASN253     -0.2867
     70  CB         0.3590   68.4600   76.5940 C.3   253  ASN253      0.1155
     71  CG        -1.0550   67.9160   76.6710 C.2   253  ASN253      0.2627
     72  OD1       -1.2790   66.7150   76.5130 O.2   253  ASN253     -0.2716
     73  ND2       -2.0170   68.7990   76.9130 N.am  253  ASN253     -0.0877
     74  N          4.3320   70.3730   75.2370 N.3   255  ASN255     -0.1225
     75  CA         4.6880   71.7640   75.5080 C.3   255  ASN255      0.1785
     76  C          4.9190   72.0610   76.9870 C.2   255  ASN255      0.2597
     77  O          5.1460   73.2090   77.3660 O.2   255  ASN255     -0.2718
     78  CB         3.6090   72.7020   74.9580 C.3   255  ASN255      0.1169
     79  CG         2.3970   72.7890   75.8620 C.2   255  ASN255      0.2627
     80  OD1        2.0950   71.8590   76.6070 O.2   255  ASN255     -0.2716
     81  ND2        1.6970   73.9120   75.7940 N.am  255  ASN255     -0.0877
     82  N          4.8600   71.0250   77.8170 N.am  256  GLN256     -0.1979
     83  CA         5.0780   71.1760   79.2520 C.3   256  GLN256      0.1601
     84  C          6.3230   70.3950   79.6660 C.2   256  GLN256      0.2287
     85  O          6.7290   70.4170   80.8270 O.2   256  GLN256     -0.2864
     86  CB         3.8620   70.6610   80.0320 C.3   256  GLN256      0.0394
     87  CG         2.7500   71.6890   80.2040 C.3   256  GLN256      0.0908
     88  CD         1.9190   71.4590   81.4570 C.2   256  GLN256      0.2608
     89  OE1        1.9620   70.3860   82.0600 O.2   256  GLN256     -0.2717
     90  NE2        1.1550   72.4710   81.8520 N.am  256  GLN256     -0.0878
@<TRIPOS>BOND
     1    37    36    2
     2    36    35    1
     3    28    27    2
     4    38    35    1
     5    38    39    1
     6    35    34    1
     7    27    34   am
     8    27    26    1
     9    29    30    1
    10    29    26    1
    11    19    18    2
    12    30    31    1
    13    26    25    1
    14    31    33   ar
    15    31    32   ar
    16    14    13    1
    17    18    25   am
    18    18    17    1
    19    78    75    1
    20    78    79    1
    21    13    15    1
    22    13    10    1
    23    74    75    1
    24    75    76    1
    25    24    23    1
    26    23    22    1
    27    81    79   am
    28    79    80    2
    29    12    11    2
    30    20    17    1
    31    20    21    1
    32    17    16    1
    33    21    22    1
    34    11    16   am
    35    11    10    1
    36    10     9    1
    37    72    71    2
    38    70    71    1
    39    70    67    1
    40    71    73   am
    41    68    67    1
    42    68    69    2
    43    76    77    2
    44    76    82   am
    45    67    66    1
    46     9     3   am
    47    82    83    1
    48     3     4    2
    49     3     2    1
    50    83    84    1
    51    83    86    1
    52    64    63    1
    53     5     2    1
    54     5     6    1
    55     2     1    1
    56    84    85    2
    57    86    87    1
    58     7     6   ar
    59    87    88    1
    60     6     8   ar
    61    45    47    1
    62    45    44    1
    63    63    65    1
    64    63    60    1
    65    40    41    1
    66    62    61    2
    67    46    44    1
    68    61    60    1
    69    44    41    1
    70    88    90   am
    71    88    89    2
    72    57    58   ar
    73    57    55   ar
    74    58    56   ar
    75    60    59    1
    76    41    42    1
    77    55    53   ar
    78    56    54   ar
    79    53    54   ar
    80    53    52    1
    81    43    42    2
    82    52    49    1
    83    49    48    1
    84    49    50    1
    85    51    50    2
