@<TRIPOS>MOLECULE
tmp/1hwpB00.pdb
 98 94 0 0 0
SMALL
GASTEIGER

@<TRIPOS>ATOM
      1  N         25.9760   75.4560  106.3150 N.3    23  ASP23      -0.1225
      2  CA        27.0670   75.1490  107.2340 C.3    23  ASP23       0.1805
      3  C         26.8370   75.6580  108.6560 C.2    23  ASP23       0.2598
      4  O         25.8830   76.3910  108.9290 O.2    23  ASP23      -0.2718
      5  CB        28.3730   75.7380  106.6900 C.3    23  ASP23       0.1424
      6  CG        28.2340   77.1990  106.3110 C.2    23  ASP23       0.3668
      7  OD1       27.1210   77.7420  106.4550 O.co2  23  ASP23      -0.2456
      8  OD2       29.2310   77.8080  105.8710 O.co2  23  ASP23      -0.2456
      9  N         27.7290   75.2620  109.5600 N.am   24  VAL24      -0.1966
     10  CA        27.6450   75.6660  110.9570 C.3    24  VAL24       0.1727
     11  C         28.4630   76.9330  111.1780 C.2    24  VAL24       0.2616
     12  O         29.6440   76.9850  110.8380 O.2    24  VAL24      -0.2715
     13  CB        28.1810   74.5600  111.8930 C.3    24  VAL24       0.0290
     14  CG1       27.5860   74.7270  113.2790 C.3    24  VAL24       0.0023
     15  CG2       27.8400   73.1850  111.3300 C.3    24  VAL24       0.0023
     16  N         27.8260   77.9490  111.7530 N.am   25  ARG25      -0.1963
     17  CA        28.4790   79.2290  112.0140 C.3    25  ARG25       0.1729
     18  C         29.8430   79.1170  112.6930 C.2    25  ARG25       0.2616
     19  O         29.9820   78.4900  113.7420 O.2    25  ARG25      -0.2715
     20  CB        27.5650   80.1160  112.8610 C.3    25  ARG25       0.0348
     21  CG        27.6790   81.5990  112.5460 C.3    25  ARG25       0.0492
     22  CD        26.5160   82.3790  113.1370 C.3    25  ARG25       0.2205
     23  NE        26.5370   82.3550  114.5970 N.pl3  25  ARG25      -0.0865
     24  CZ        25.6010   82.9020  115.3660 C.cat  25  ARG25       0.5346
     25  NH1       24.5620   83.5170  114.8160 N.pl3  25  ARG25       0.1354
     26  NH2       25.7050   82.8340  116.6850 N.pl3  25  ARG25       0.1354
     27  N         30.8440   79.7380  112.0750 N.am   26  ASN26      -0.1958
     28  CA        32.2110   79.7510  112.5850 C.3    26  ASN26       0.1819
     29  C         32.8090   78.3670  112.8210 C.2    26  ASN26       0.2621
     30  O         33.8250   78.2300  113.5020 O.2    26  ASN26      -0.2715
     31  CB        32.2770   80.5740  113.8720 C.3    26  ASN26       0.1195
     32  CG        31.9210   82.0310  113.6480 C.2    26  ASN26       0.2630
     33  OD1       30.7610   82.3690  113.4130 O.2    26  ASN26      -0.2716
     34  ND2       32.9200   82.9000  113.7140 N.am   26  ASN26      -0.0877
     35  N         32.1770   77.3460  112.2510 N.am   27  GLY27      -0.1954
     36  CA        32.6690   75.9880  112.4030 C.3    27  GLY27       0.1869
     37  C         32.8780   75.5420  113.8350 C.2    27  GLY27       0.2309
     38  O         33.7250   74.6900  114.1130 O.2    27  GLY27      -0.2863
     39  N         23.5240   78.2940  108.9180 N.3    36  GLN36      -0.1245
     40  CA        23.3150   79.4220  108.0140 C.3    36  GLN36       0.1566
     41  C         23.8150   79.1430  106.6000 C.2    36  GLN36       0.2260
     42  O         24.4990   78.1500  106.3540 O.2    36  GLN36      -0.2867
     43  CB        24.0160   80.6690  108.5620 C.3    36  GLN36       0.0367
     44  CG        25.2790   80.3780  109.3600 C.3    36  GLN36       0.0905
     45  CD        26.5410   80.8340  108.6490 C.2    36  GLN36       0.2608
     46  OE1       26.8310   82.0260  108.5770 O.2    36  GLN36      -0.2717
     47  NE2       27.2970   79.8820  108.1220 N.am   36  GLN36      -0.0878
     48  N         26.1050   79.9930  103.3230 N.3    38  TRP38      -0.1241
     49  CA        27.4530   80.5230  103.1740 C.3    38  TRP38       0.1605
     50  C         28.1820   79.9650  101.9550 C.2    38  TRP38       0.2264
     51  O         28.0560   78.7830  101.6310 O.2    38  TRP38      -0.2867
     52  CB        28.2630   80.2150  104.4330 C.3    38  TRP38       0.0550
     53  CG        29.6190   80.8300  104.4380 C.ar   38  TRP38       0.0003
     54  CD1       30.7800   80.2600  103.9950 C.ar   38  TRP38       0.0946
     55  CD2       29.9660   82.1370  104.9080 C.ar   38  TRP38       0.0152
     56  NE1       31.8280   81.1340  104.1600 N.ar   38  TRP38      -0.2442
     57  CE2       31.3580   82.2940  104.7200 C.ar   38  TRP38       0.0810
     58  CE3       29.2370   83.1940  105.4720 C.ar   38  TRP38       0.0012
     59  CZ2       32.0370   83.4640  105.0750 C.ar   38  TRP38       0.0191
     60  CZ3       29.9110   84.3570  105.8240 C.ar   38  TRP38       0.0001
     61  CH2       31.2990   84.4810  105.6240 C.ar   38  TRP38       0.0015
     62  N         35.5510   72.7270  103.8620 N.3    43  GLN43      -0.1245
     63  CA        35.5230   72.9940  105.2970 C.3    43  GLN43       0.1566
     64  C         34.4980   72.0710  105.9600 C.2    43  GLN43       0.2260
     65  O         33.3790   71.9230  105.4670 O.2    43  GLN43      -0.2867
     66  CB        35.1590   74.4620  105.5470 C.3    43  GLN43       0.0367
     67  CG        34.2210   75.0530  104.5040 C.3    43  GLN43       0.0905
     68  CD        34.7990   76.2720  103.8010 C.2    43  GLN43       0.2608
     69  OE1       34.2390   77.3660  103.8780 O.2    43  GLN43      -0.2717
     70  NE2       35.9210   76.0870  103.1080 N.am   43  GLN43      -0.0878
     71  N         32.5760   72.3260  108.6000 N.3    45  ASN45      -0.1225
     72  CA        31.3090   72.9800  108.9210 C.3    45  ASN45       0.1785
     73  C         30.3510   72.9260  107.7380 C.2    45  ASN45       0.2597
     74  O         29.1320   72.9980  107.9080 O.2    45  ASN45      -0.2718
     75  CB        31.5530   74.4380  109.3060 C.3    45  ASN45       0.1169
     76  CG        32.8090   75.0010  108.6720 C.2    45  ASN45       0.2627
     77  OD1       33.1980   74.5970  107.5790 O.2    45  ASN45      -0.2716
     78  ND2       33.4530   75.9350  109.3570 N.am   45  ASN45      -0.0877
     79  N         30.9140   72.8020  106.5410 N.am   46  GLN46      -0.1979
     80  CA        30.1250   72.7390  105.3200 C.3    46  GLN46       0.1601
     81  C         29.8020   71.2970  104.9320 C.2    46  GLN46       0.2287
     82  O         28.8190   71.0390  104.2350 O.2    46  GLN46      -0.2864
     83  CB        30.8810   73.4220  104.1800 C.3    46  GLN46       0.0394
     84  CG        30.2220   74.6950  103.6820 C.3    46  GLN46       0.0908
     85  CD        31.2160   75.8200  103.4630 C.2    46  GLN46       0.2608
     86  OE1       31.8360   75.9180  102.4050 O.2    46  GLN46      -0.2717
     87  NE2       31.3700   76.6760  104.4650 N.am   46  GLN46      -0.0878
     88  N         25.5550   84.2840  105.1610 N.3   114  ARG114     -0.1245
     89  CA        25.3900   84.3830  106.6110 C.3   114  ARG114      0.1563
     90  C         23.9410   84.1900  107.0610 C.2   114  ARG114      0.2260
     91  O         23.6650   84.0920  108.2550 O.2   114  ARG114     -0.2867
     92  CB        25.9000   85.7380  107.1160 C.3   114  ARG114      0.0307
     93  CG        26.6490   85.6850  108.4330 C.3   114  ARG114      0.0489
     94  CD        27.2340   87.0460  108.7830 C.3   114  ARG114      0.2205
     95  NE        28.6900   87.0080  108.8740 N.pl3 114  ARG114     -0.0865
     96  CZ        29.5090   87.4510  107.9250 C.cat 114  ARG114      0.5346
     97  NH1       29.0170   87.9720  106.8090 N.pl3 114  ARG114      0.1354
     98  NH2       30.8220   87.3770  108.0960 N.pl3 114  ARG114      0.1354
@<TRIPOS>BOND
     1    51    50    2
     2    50    49    1
     3    86    85    2
     4    70    68   am
     5    49    48    1
     6    49    52    1
     7    85    84    1
     8    85    87   am
     9    84    83    1
    10    68    69    2
    11    68    67    1
    12    62    63    1
    13    54    56   ar
    14    54    53   ar
    15    56    57   ar
    16    83    80    1
    17    82    81    2
    18    52    53    1
    19    53    55   ar
    20    67    66    1
    21    57    55   ar
    22    57    59   ar
    23    55    58   ar
    24    81    80    1
    25    59    61   ar
    26    88    89    1
    27    63    66    1
    28    63    64    1
    29    80    79    1
    30    65    64    2
    31    58    60   ar
    32    61    60   ar
    33     8     6   ar
    34     6     7   ar
    35     6     5    1
    36     1     2    1
    37    42    41    2
    38    79    73   am
    39    41    40    1
    40    89    90    1
    41    89    92    1
    42     5     2    1
    43    97    96    1
    44    90    91    2
    45    92    93    1
    46     2     3    1
    47    77    76    2
    48    73    74    2
    49    73    72    1
    50    96    98    1
    51    96    95    2
    52    40    43    1
    53    40    39    1
    54    47    45   am
    55    93    94    1
    56    43    44    1
    57    46    45    2
    58    71    72    1
    59    45    44    1
    60     3     4    2
    61     3     9   am
    62    76    75    1
    63    76    78   am
    64    94    95    1
    65    72    75    1
    66     9    10    1
    67    12    11    2
    68    10    11    1
    69    10    13    1
    70    11    16   am
    71    15    13    1
    72    16    17    1
    73    13    14    1
    74    17    18    1
    75    17    20    1
    76    27    28    1
    77    27    18   am
    78    35    36    1
    79    35    29   am
    80    36    37    1
    81    21    20    1
    82    21    22    1
    83    28    29    1
    84    28    31    1
    85    18    19    2
    86    29    30    2
    87    22    23    1
    88    33    32    2
    89    32    34   am
    90    32    31    1
    91    37    38    2
    92    23    24    2
    93    25    24    1
    94    24    26    1
