@<TRIPOS>MOLECULE
tmp/1hwpA00.pdb
 151 148 0 0 0
SMALL
GASTEIGER

@<TRIPOS>ATOM
      1  N         16.6490   42.9690   80.4280 N.3    75  ASN75      -0.1225
      2  CA        17.8430   43.8060   80.4100 C.3    75  ASN75       0.1785
      3  C         17.9590   44.6580   79.1520 C.2    75  ASN75       0.2597
      4  O         18.8830   45.4620   79.0290 O.2    75  ASN75      -0.2718
      5  CB        19.0950   42.9350   80.5420 C.3    75  ASN75       0.1169
      6  CG        19.1780   41.8700   79.4690 C.2    75  ASN75       0.2627
      7  OD1       18.4700   41.9320   78.4650 O.2    75  ASN75      -0.2716
      8  ND2       20.0490   40.8870   79.6710 N.am   75  ASN75      -0.0877
      9  N         17.0230   44.4860   78.2220 N.am   76  LEU76      -0.1966
     10  CA        17.0390   45.2360   76.9680 C.3    76  LEU76       0.1728
     11  C         18.2840   44.8780   76.1510 C.2    76  LEU76       0.2616
     12  O         18.8950   45.7380   75.5150 O.2    76  LEU76      -0.2715
     13  CB        17.0260   46.7410   77.2500 C.3    76  LEU76       0.0311
     14  CG        15.6680   47.4440   77.2980 C.3    76  LEU76       0.0022
     15  CD1       15.8800   48.9400   77.4910 C.3    76  LEU76       0.0001
     16  CD2       14.8970   47.1700   76.0170 C.3    76  LEU76       0.0001
     17  N         18.6470   43.5990   76.1720 N.am   77  TYR77      -0.1960
     18  CA        19.8190   43.1050   75.4540 C.3    77  TYR77       0.1771
     19  C         19.4760   42.6080   74.0560 C.2    77  TYR77       0.2619
     20  O         18.3920   42.0850   73.8280 O.2    77  TYR77      -0.2715
     21  CB        20.4560   41.9540   76.2350 C.3    77  TYR77       0.0574
     22  CG        21.6750   42.3420   77.0310 C.ar   77  TYR77      -0.0198
     23  CD1       21.6300   43.3970   77.9380 C.ar   77  TYR77      -0.0009
     24  CD2       22.8760   41.6510   76.8820 C.ar   77  TYR77      -0.0009
     25  CE1       22.7500   43.7560   78.6750 C.ar   77  TYR77       0.0417
     26  CE2       24.0040   42.0030   77.6160 C.ar   77  TYR77       0.0417
     27  CZ        23.9330   43.0580   78.5110 C.ar   77  TYR77       0.1957
     28  OH        25.0410   43.4290   79.2350 O.3    77  TYR77      -0.2866
     29  N         20.4040   42.7690   73.1210 N.am   78  LEU78      -0.1977
     30  CA        20.1860   42.2980   71.7590 C.3    78  LEU78       0.1596
     31  C         20.5430   40.8160   71.7380 C.2    78  LEU78       0.2287
     32  O         21.6430   40.4390   71.3400 O.2    78  LEU78      -0.2864
     33  CB        21.0730   43.0660   70.7760 C.3    78  LEU78       0.0297
     34  CG        20.5210   43.2230   69.3570 C.3    78  LEU78       0.0022
     35  CD1       20.0160   44.6430   69.1590 C.3    78  LEU78       0.0001
     36  CD2       21.6060   42.8920   68.3430 C.3    78  LEU78       0.0001
     37  N         25.0990   34.8590   69.7630 N.3    90  PHE90      -0.1241
     38  CA        26.4640   35.0370   70.2540 C.3    90  PHE90       0.1605
     39  C         27.0610   33.7380   70.7840 C.2    90  PHE90       0.2264
     40  O         26.3500   32.7510   70.9770 O.2    90  PHE90      -0.2867
     41  CB        26.4900   36.0990   71.3530 C.3    90  PHE90       0.0534
     42  CG        25.9290   37.4210   70.9250 C.ar   90  PHE90      -0.0203
     43  CD1       26.6810   38.2880   70.1420 C.ar   90  PHE90      -0.0042
     44  CD2       24.6430   37.7960   71.2940 C.ar   90  PHE90      -0.0042
     45  CE1       26.1600   39.5100   69.7310 C.ar   90  PHE90      -0.0003
     46  CE2       24.1140   39.0150   70.8880 C.ar   90  PHE90      -0.0003
     47  CZ        24.8730   39.8740   70.1040 C.ar   90  PHE90      -0.0000
     48  N         27.8710   39.0980   73.3530 N.3   114  GLY114     -0.1210
     49  CA        27.3600   40.4390   73.1360 C.3   114  GLY114      0.1956
     50  C         28.0670   41.5110   73.9420 C.2   114  GLY114      0.2612
     51  O         27.8640   42.7010   73.7070 O.2   114  GLY114     -0.2717
     52  N         28.8930   41.0950   74.8980 N.am  115  ASN115     -0.1960
     53  CA        29.6310   42.0390   75.7310 C.3   115  ASN115      0.1819
     54  C         30.3040   43.0910   74.8540 C.2   115  ASN115      0.2621
     55  O         30.9810   42.7600   73.8800 O.2   115  ASN115     -0.2715
     56  CB        30.6860   41.2980   76.5560 C.3   115  ASN115      0.1195
     57  CG        30.0770   40.2950   77.5160 C.2   115  ASN115      0.2630
     58  OD1       30.6070   39.2010   77.7050 O.2   115  ASN115     -0.2716
     59  ND2       28.9550   40.6630   78.1280 N.am  115  ASN115     -0.0877
     60  N         30.1090   44.3580   75.2020 N.am  116  TYR116     -0.1974
     61  CA        30.6890   45.4630   74.4430 C.3   116  TYR116      0.1639
     62  C         32.1310   45.1730   74.0470 C.2   116  TYR116      0.2290
     63  O         32.4670   45.1520   72.8650 O.2   116  TYR116     -0.2864
     64  CB        30.6430   46.7520   75.2660 C.3   116  TYR116      0.0560
     65  CG        29.5380   47.7110   74.8790 C.ar  116  TYR116     -0.0198
     66  CD1       29.2490   48.8190   75.6760 C.ar  116  TYR116     -0.0009
     67  CD2       28.7780   47.5140   73.7240 C.ar  116  TYR116     -0.0009
     68  CE1       28.2340   49.7060   75.3380 C.ar  116  TYR116      0.0417
     69  CE2       27.7570   48.3990   73.3760 C.ar  116  TYR116      0.0417
     70  CZ        27.4920   49.4910   74.1890 C.ar  116  TYR116      0.1957
     71  OH        26.4850   50.3670   73.8550 O.3   116  TYR116     -0.2866
     72  N         23.1620   48.1600   68.7170 N.3   158  ILE158     -0.1245
     73  CA        23.0870   48.1240   70.1740 C.3   158  ILE158      0.1561
     74  C         22.9040   49.4910   70.8300 C.2   158  ILE158      0.2260
     75  O         22.0590   49.6570   71.7070 O.2   158  ILE158     -0.2867
     76  CB        24.3510   47.4730   70.7640 C.3   158  ILE158      0.0252
     77  CG1       24.3710   45.9840   70.4230 C.3   158  ILE158      0.0019
     78  CG2       24.3910   47.6740   72.2710 C.3   158  ILE158      0.0019
     79  CD1       25.7340   45.3520   70.5560 C.3   158  ILE158      0.0001
     80  N         18.8860   49.7460   72.1610 N.3   162  PRO162     -0.2102
     81  CA        18.9040   49.5160   73.6120 C.3   162  PRO162      0.1504
     82  C         19.4260   50.7090   74.4100 C.2   162  PRO162      0.2575
     83  O         18.7630   51.1850   75.3320 O.2   162  PRO162     -0.2718
     84  CB        19.7950   48.2860   73.7700 C.3   162  PRO162      0.0282
     85  CG        19.6470   47.5610   72.4810 C.3   162  PRO162      0.0208
     86  CD        19.5240   48.6350   71.4320 C.3   162  PRO162      0.0893
     87  N         20.6120   51.1910   74.0510 N.am  163  GLU163     -0.1980
     88  CA        21.2150   52.3270   74.7400 C.3   163  GLU163      0.1602
     89  C         20.2630   53.5140   74.7870 C.2   163  GLU163      0.2287
     90  O         20.0170   54.0840   75.8500 O.2   163  GLU163     -0.2864
     91  CB        22.5110   52.7420   74.0390 C.3   163  GLU163      0.0415
     92  CG        23.7570   52.5790   74.8920 C.3   163  GLU163      0.1163
     93  CD        23.7280   51.3160   75.7260 C.2   163  GLU163      0.3649
     94  OE1       23.8990   50.2210   75.1520 O.co2 163  GLU163     -0.2457
     95  OE2       23.5290   51.4170   76.9550 O.co2 163  GLU163     -0.2457
     96  N         17.3110   53.2040   77.1810 N.3   166  ARG166     -0.1245
     97  CA        17.5130   53.4710   78.6000 C.3   166  ARG166      0.1563
     98  C         18.1160   54.8480   78.8510 C.2   166  ARG166      0.2260
     99  O         18.0400   55.3730   79.9630 O.2   166  ARG166     -0.2867
    100  CB        18.4110   52.3980   79.2230 C.3   166  ARG166      0.0307
    101  CG        19.3720   51.7290   78.2540 C.3   166  ARG166      0.0489
    102  CD        19.8900   50.4220   78.8240 C.3   166  ARG166      0.2205
    103  NE        20.9250   49.8220   77.9880 N.pl3 166  ARG166     -0.0865
    104  CZ        20.9310   48.5480   77.6090 C.cat 166  ARG166      0.5346
    105  NH1       21.9120   48.0840   76.8490 N.pl3 166  ARG166      0.1354
    106  NH2       19.9560   47.7330   77.9930 N.pl3 166  ARG166      0.1354
    107  N         27.1810   54.6750   79.3790 N.3   194  GLU194     -0.1231
    108  CA        26.9260   53.4300   78.6680 C.3   194  GLU194      0.1699
    109  C         27.5000   52.2760   79.4830 C.2   194  GLU194      0.2592
    110  O         26.9370   51.1810   79.5200 O.2   194  GLU194     -0.2718
    111  CB        27.5920   53.4610   77.2900 C.3   194  GLU194      0.0402
    112  CG        26.6440   53.6960   76.1310 C.3   194  GLU194      0.1161
    113  CD        27.3300   53.5470   74.7810 C.2   194  GLU194      0.3649
    114  OE1       28.1930   52.6520   74.6470 O.co2 194  GLU194     -0.2457
    115  OE2       27.0090   54.3260   73.8570 O.co2 194  GLU194     -0.2457
    116  N         28.6240   52.5370   80.1450 N.am  195  ASN195     -0.1974
    117  CA        29.2890   51.5260   80.9570 C.3   195  ASN195      0.1688
    118  C         28.8090   51.5250   82.4060 C.2   195  ASN195      0.2292
    119  O         29.0460   50.5670   83.1410 O.2   195  ASN195     -0.2864
    120  CB        30.8040   51.7450   80.9330 C.3   195  ASN195      0.1181
    121  CG        31.3570   51.8640   79.5240 C.2   195  ASN195      0.2629
    122  OD1       31.0660   51.0410   78.6570 O.2   195  ASN195     -0.2716
    123  ND2       32.1630   52.8920   79.2920 N.am  195  ASN195     -0.0877
    124  N         25.5550   51.6000   83.5550 N.3   197  TRP197     -0.1227
    125  CA        24.1300   51.3190   83.7140 C.3   197  TRP197      0.1737
    126  C         23.8780   50.5030   84.9760 C.2   197  TRP197      0.2596
    127  O         22.9520   50.7870   85.7320 O.2   197  TRP197     -0.2718
    128  CB        23.5700   50.5630   82.5060 C.3   197  TRP197      0.0564
    129  CG        22.0630   50.5450   82.4820 C.ar  197  TRP197      0.0003
    130  CD1       21.2300   51.6160   82.6490 C.ar  197  TRP197      0.0946
    131  CD2       21.2120   49.4070   82.2800 C.ar  197  TRP197      0.0152
    132  NE1       19.9190   51.2130   82.5610 N.ar  197  TRP197     -0.2442
    133  CE2       19.8800   49.8640   82.3360 C.ar  197  TRP197      0.0810
    134  CE3       21.4490   48.0450   82.0570 C.ar  197  TRP197      0.0012
    135  CZ2       18.7890   49.0070   82.1760 C.ar  197  TRP197      0.0191
    136  CZ3       20.3640   47.1950   81.8970 C.ar  197  TRP197      0.0001
    137  CH2       19.0510   47.6800   81.9570 C.ar  197  TRP197      0.0015
    138  N         24.7050   49.4870   85.1990 N.am  198  SER198     -0.1952
    139  CA        24.5630   48.6370   86.3750 C.3   198  SER198      0.1924
    140  C         24.8190   49.4260   87.6530 C.2   198  SER198      0.2314
    141  O         24.0030   49.4160   88.5750 O.2   198  SER198     -0.2863
    142  CB        25.5360   47.4580   86.2950 C.3   198  SER198      0.2116
    143  OG        24.9720   46.2950   86.8750 O.3   198  SER198     -0.2180
    144  N         17.9400   48.9080   85.7240 N.3   246  LEU246     -0.1245
    145  CA        18.1960   47.4730   85.7200 C.3   246  LEU246      0.1561
    146  C         18.1100   46.9590   87.1520 C.2   246  LEU246      0.2260
    147  O         18.5680   47.6200   88.0860 O.2   246  LEU246     -0.2867
    148  CB        19.5860   47.1800   85.1490 C.3   246  LEU246      0.0270
    149  CG        20.1260   45.7630   85.3630 C.3   246  LEU246      0.0019
    150  CD1       19.3670   44.7770   84.4870 C.3   246  LEU246      0.0001
    151  CD2       21.6090   45.7360   85.0380 C.3   246  LEU246      0.0001
@<TRIPOS>BOND
     1    36    34    1
     2    72    73    1
     3    35    34    1
     4    34    33    1
     5    45    47   ar
     6    45    43   ar
     7    37    38    1
     8    47    46   ar
     9    43    42   ar
    10    73    76    1
    11    73    74    1
    12    38    39    1
    13    38    41    1
    14    77    79    1
    15    77    76    1
    16    76    78    1
    17    33    30    1
    18    39    40    2
    19    74    75    2
    20    46    44   ar
    21    42    44   ar
    22    42    41    1
    23    32    31    2
    24    86    80    1
    25    86    85    1
    26    31    30    1
    27    30    29    1
    28    80    81    1
    29    85    84    1
    30    63    62    2
    31    29    19   am
    32    49    48    1
    33    49    50    1
    34    69    67   ar
    35    69    70   ar
    36    81    84    1
    37    81    82    1
    38    51    50    2
    39    67    65   ar
    40    20    19    2
    41    71    70    1
    42   115   113   ar
    43    55    54    2
    44    50    52   am
    45    91    88    1
    46    91    92    1
    47    62    61    1
    48    87    82   am
    49    87    88    1
    50    19    18    1
    51    70    68   ar
    52    82    83    2
    53    61    60    1
    54    61    64    1
    55   114   113   ar
    56    88    89    1
    57   113   112    1
    58    89    90    2
    59    54    60   am
    60    54    53    1
    61    65    64    1
    62    65    66   ar
    63    92    93    1
    64    52    53    1
    65    94    93   ar
    66    68    66   ar
    67    18    17    1
    68    18    21    1
    69    12    11    2
    70    93    95   ar
    71    53    56    1
    72    16    14    1
    73   112   111    1
    74    11    17   am
    75    11    10    1
    76    21    22    1
    77    56    57    1
    78   105   104    1
    79    24    22   ar
    80    24    26   ar
    81    10    13    1
    82    10     9    1
    83    22    23   ar
    84    96    97    1
    85    13    14    1
    86   111   108    1
    87    14    15    1
    88    57    58    2
    89    57    59   am
    90   104   103    2
    91   104   106    1
    92    26    27   ar
    93    23    25   ar
    94   103   102    1
    95     9     3   am
    96   101   102    1
    97   101   100    1
    98     7     6    2
    99    27    25   ar
   100    27    28    1
   101    97    98    1
   102    97   100    1
   103   122   121    2
   104   108   107    1
   105   108   109    1
   106    98    99    2
   107     4     3    2
   108     3     2    1
   109   123   121   am
   110     6     8   am
   111     6     5    1
   112   109   110    2
   113   109   116   am
   114   121   120    1
   115   116   117    1
   116     2     1    1
   117     2     5    1
   118   120   117    1
   119   117   118    1
   120   136   137   ar
   121   136   134   ar
   122   137   135   ar
   123   134   131   ar
   124   135   133   ar
   125   131   133   ar
   126   131   129   ar
   127   133   132   ar
   128   118   119    2
   129   129   128    1
   130   129   130   ar
   131   128   125    1
   132   132   130   ar
   133   124   125    1
   134   125   126    1
   135   150   149    1
   136   126   138   am
   137   126   127    2
   138   151   149    1
   139   148   149    1
   140   148   145    1
   141   138   139    1
   142   145   144    1
   143   145   146    1
   144   142   139    1
   145   142   143    1
   146   139   140    1
   147   146   147    2
   148   140   141    2
