@<TRIPOS>MOLECULE
tmp/1hwrB00.pdb
 112 105 0 0 0
SMALL
GASTEIGER

@<TRIPOS>ATOM
      1  N        -21.8320   19.8620   34.1420 N.3     8  ARG8       -0.1245
      2  CA       -21.0450   19.6440   32.9180 C.3     8  ARG8        0.1563
      3  C        -21.8370   20.2770   31.8470 C.2     8  ARG8        0.2260
      4  O        -23.0410   20.1010   31.7940 O.2     8  ARG8       -0.2867
      5  CB       -20.9520   18.1730   32.4240 C.3     8  ARG8        0.0307
      6  CG       -20.4960   17.0070   33.3000 C.3     8  ARG8        0.0489
      7  CD       -18.9950   16.7110   33.3160 C.3     8  ARG8        0.2205
      8  NE       -18.7100   15.2720   33.1470 N.pl3   8  ARG8       -0.0865
      9  CZ       -17.6730   14.8510   32.3820 C.cat   8  ARG8        0.5346
     10  NH1      -16.6250   15.6520   32.0600 N.pl3   8  ARG8        0.1354
     11  NH2      -17.7090   13.5900   31.9260 N.pl3   8  ARG8        0.1354
     12  N        -20.2190   17.0710   25.1560 N.3    23  LEU23      -0.1245
     13  CA       -19.7390   17.9710   26.1870 C.3    23  LEU23       0.1561
     14  C        -19.1220   19.1720   25.4630 C.2    23  LEU23       0.2260
     15  O        -18.3890   19.0350   24.4920 O.2    23  LEU23      -0.2867
     16  CB       -18.7990   17.0800   27.0260 C.3    23  LEU23       0.0270
     17  CG       -18.0130   17.6590   28.1770 C.3    23  LEU23       0.0019
     18  CD1      -18.8680   17.6960   29.3950 C.3    23  LEU23       0.0001
     19  CD2      -16.7760   16.8250   28.4990 C.3    23  LEU23       0.0001
     20  N        -16.3810   21.6800   25.0490 N.3    25  ASP25      -0.1239
     21  CA       -15.0430   21.5430   25.5990 C.3    25  ASP25       0.1674
     22  C        -14.0520   22.5670   25.0590 C.2    25  ASP25       0.2266
     23  O        -13.4420   22.4560   24.0090 O.2    25  ASP25      -0.2867
     24  CB       -14.6140   20.0800   25.3170 C.3    25  ASP25       0.1410
     25  CG       -13.3810   19.6350   26.0890 C.2    25  ASP25       0.3668
     26  OD1      -12.7260   20.4150   26.7640 O.co2  25  ASP25      -0.2456
     27  OD2      -13.0350   18.4830   26.0010 O.co2  25  ASP25      -0.2456
     28  N        -11.2380   23.0500   25.9960 N.3    27  GLY27      -0.1210
     29  CA        -9.8700   22.5620   26.1070 C.3    27  GLY27       0.1956
     30  C         -9.4030   21.7420   24.9610 C.2    27  GLY27       0.2612
     31  O         -8.2310   21.4510   24.8650 O.2    27  GLY27      -0.2717
     32  N        -10.3460   21.2960   24.1280 N.am   28  ALA28      -0.1965
     33  CA       -10.0130   20.3120   23.0850 C.3    28  ALA28       0.1728
     34  C         -9.9170   21.0390   21.7450 C.2    28  ALA28       0.2616
     35  O        -10.7840   21.8280   21.4420 O.2    28  ALA28      -0.2715
     36  CB       -11.1410   19.2600   22.9900 C.3    28  ALA28       0.0334
     37  N         -8.8940   20.7790   20.9370 N.am   29  ASP29      -0.1957
     38  CA        -8.8830   21.5070   19.6690 C.3    29  ASP29       0.1840
     39  C         -9.8440   20.9810   18.6280 C.2    29  ASP29       0.2622
     40  O        -10.1930   21.6700   17.6840 O.2    29  ASP29      -0.2715
     41  CB        -7.5230   21.4650   18.9610 C.3    29  ASP29       0.1450
     42  CG        -6.3890   21.8540   19.8900 C.2    29  ASP29       0.3671
     43  OD1       -6.5290   22.7710   20.7050 O.co2  29  ASP29      -0.2456
     44  OD2       -5.3540   21.1910   19.8250 O.co2  29  ASP29      -0.2456
     45  N        -10.2410   19.7190   18.8310 N.am   30  ASP30      -0.1971
     46  CA       -10.9120   18.8420   17.8560 C.3    30  ASP30       0.1709
     47  C        -12.1440   18.3020   18.5100 C.2    30  ASP30       0.2293
     48  O        -12.2330   18.3320   19.7270 O.2    30  ASP30      -0.2864
     49  CB       -10.0890   17.5590   17.6390 C.3    30  ASP30       0.1436
     50  CG        -8.7290   17.7780   17.0450 C.2    30  ASP30       0.3671
     51  OD1       -8.6040   18.5670   16.0880 O.co2  30  ASP30      -0.2456
     52  OD2       -7.7870   17.1330   17.5440 O.co2  30  ASP30      -0.2456
     53  N        -14.3140   14.9050   19.0290 N.3    32  VAL32      -0.1245
     54  CA       -14.1940   13.4510   18.9560 C.3    32  VAL32       0.1561
     55  C        -15.3990   12.8580   19.6360 C.2    32  VAL32       0.2260
     56  O        -15.8130   13.2730   20.7160 O.2    32  VAL32      -0.2867
     57  CB       -12.8860   12.9130   19.5760 C.3    32  VAL32       0.0252
     58  CG1      -12.5240   13.5960   20.8980 C.3    32  VAL32       0.0019
     59  CG2      -12.9330   11.4020   19.6750 C.3    32  VAL32       0.0019
     60  N         -4.8980   10.9620   18.1930 N.3    47  ILE47      -0.1231
     61  CA        -4.8610   12.1930   18.9940 C.3    47  ILE47       0.1692
     62  C         -4.4880   11.9980   20.4470 C.2    47  ILE47       0.2593
     63  O         -4.6530   10.9190   21.0060 O.2    47  ILE47      -0.2718
     64  CB        -6.1680   13.0660   18.8860 C.3    47  ILE47       0.0266
     65  CG1       -7.2990   12.7530   19.8500 C.3    47  ILE47       0.0019
     66  CG2       -6.6850   13.2260   17.4600 C.3    47  ILE47       0.0020
     67  CD1       -8.1160   11.6540   19.2490 C.3    47  ILE47       0.0001
     68  N         -3.9600   13.0390   21.0700 N.am   48  GLY48      -0.1942
     69  CA        -3.6130   12.8450   22.4890 C.3    48  GLY48       0.2014
     70  C         -4.5840   13.3850   23.5400 C.2    48  GLY48       0.2639
     71  O         -5.3940   14.2580   23.2890 O.2    48  GLY48      -0.2714
     72  N         -4.4810   12.8440   24.7120 N.am   49  GLY49      -0.1939
     73  CA        -5.2990   13.2870   25.8230 C.3    49  GLY49       0.2014
     74  C         -4.4080   13.1690   27.0070 C.2    49  GLY49       0.2638
     75  O         -3.2110   12.9790   26.8190 O.2    49  GLY49      -0.2714
     76  N         -4.9780   13.2350   28.2130 N.am   50  ILE50      -0.1977
     77  CA        -4.1420   12.8080   29.3370 C.3    50  ILE50       0.1596
     78  C         -4.2950   11.3090   29.3530 C.2    50  ILE50       0.2287
     79  O         -5.3740   10.8290   29.0630 O.2    50  ILE50      -0.2864
     80  CB        -4.6560   13.3830   30.6560 C.3    50  ILE50       0.0276
     81  CG1       -6.1030   13.0610   30.7790 C.3    50  ILE50       0.0022
     82  CG2       -4.5960   14.8900   30.7590 C.3    50  ILE50       0.0022
     83  CD1       -6.4240   12.6800   32.2030 C.3    50  ILE50       0.0001
     84  N        -13.5790    7.4450   22.6520 N.3    80  THR80      -0.1204
     85  CA       -13.7360    8.3180   23.8160 C.3    80  THR80       0.1979
     86  C        -14.7480    7.7510   24.7220 C.2    80  THR80       0.2460
     87  O        -15.6810    7.1100   24.2640 O.2    80  THR80      -0.2732
     88  CB       -14.3830    9.6360   23.4570 C.3    80  THR80       0.1783
     89  OG1      -15.0300    9.5700   22.1890 O.3    80  THR80      -0.2211
     90  CG2      -13.4140   10.7720   23.5770 C.3    80  THR80       0.0376
     91  N        -14.5550    8.0440   26.0080 N.am   81  PRO81      -0.2717
     92  CA       -15.6640    7.9690   26.9390 C.3    81  PRO81       0.1535
     93  C        -16.7690    9.0090   26.7920 C.2    81  PRO81       0.2598
     94  O        -17.8940    8.7480   27.1790 O.2    81  PRO81      -0.2715
     95  CB       -14.9280    8.0030   28.3170 C.3    81  PRO81       0.0310
     96  CG       -13.6190    8.7490   28.1070 C.3    81  PRO81       0.0237
     97  CD       -13.2670    8.3480   26.6750 C.3    81  PRO81       0.0939
     98  N        -16.4510   10.2120   26.2940 N.am   82  VAL82      -0.1978
     99  CA       -17.4560   11.2910   26.1850 C.3    82  VAL82       0.1596
    100  C        -17.3380   11.8560   24.8260 C.2    82  VAL82       0.2287
    101  O        -16.2530   11.8550   24.2790 O.2    82  VAL82      -0.2864
    102  CB       -17.2430   12.5040   27.1020 C.3    82  VAL82       0.0276
    103  CG1      -17.9890   12.3820   28.4050 C.3    82  VAL82       0.0022
    104  CG2      -15.7800   12.8290   27.3180 C.3    82  VAL82       0.0022
    105  N        -17.1120   14.9070   22.5730 N.3    84  ILE84      -0.1245
    106  CA       -16.5030   16.1890   22.8700 C.3    84  ILE84       0.1561
    107  C        -16.6120   17.0680   21.6350 C.2    84  ILE84       0.2260
    108  O        -16.3490   16.6270   20.5400 O.2    84  ILE84      -0.2867
    109  CB       -15.0240   15.8840   23.1940 C.3    84  ILE84       0.0252
    110  CG1      -14.8410   15.2410   24.5790 C.3    84  ILE84       0.0019
    111  CG2      -14.1850   17.1460   23.1400 C.3    84  ILE84       0.0019
    112  CD1      -13.4290   14.7090   24.6920 C.3    84  ILE84       0.0001
@<TRIPOS>BOND
     1    51    50   ar
     2    50    52   ar
     3    50    49    1
     4    66    64    1
     5    49    46    1
     6    40    39    2
     7    46    47    1
     8    46    45    1
     9    60    61    1
    10    47    48    2
    11    39    45   am
    12    39    38    1
    13    64    61    1
    14    64    65    1
    15    54    53    1
    16    54    57    1
    17    54    55    1
    18    41    38    1
    19    41    42    1
    20    61    62    1
    21    67    65    1
    22    57    59    1
    23    57    58    1
    24    55    56    2
    25    38    37    1
    26    44    42   ar
    27    42    43   ar
    28    62    63    2
    29    62    68   am
    30   108   107    2
    31    37    34   am
    32    68    69    1
    33    35    34    2
    34   107   106    1
    35    34    33    1
    36    89    88    1
    37    69    70    1
    38   105   106    1
    39    84    85    1
    40   106   109    1
    41    36    33    1
    42    33    32    1
    43   111   109    1
    44   109   110    1
    45    71    70    2
    46    88    90    1
    47    88    85    1
    48    70    72   am
    49    85    86    1
    50    23    22    2
    51    32    30   am
    52    87    86    2
    53   101   100    2
    54    15    14    2
    55   110   112    1
    56    72    73    1
    57    86    91   am
    58   100    99    1
    59    31    30    2
    60    30    29    1
    61    20    21    1
    62    22    21    1
    63    12    13    1
    64    24    21    1
    65    24    25    1
    66    14    13    1
    67    73    74    1
    68    28    29    1
    69    27    25   ar
    70    91    97    1
    71    91    92    1
    72    25    26   ar
    73    99    98    1
    74    99   102    1
    75    13    16    1
    76    98    93   am
    77    97    96    1
    78    93    92    1
    79    93    94    2
    80    75    74    2
    81    92    95    1
    82    74    76   am
    83    16    17    1
    84   102   104    1
    85   102   103    1
    86    96    95    1
    87    17    19    1
    88    17    18    1
    89    76    77    1
    90    79    78    2
    91    77    78    1
    92    77    80    1
    93    80    82    1
    94    80    81    1
    95    81    83    1
    96     4     3    2
    97     3     2    1
    98    11     9    1
    99    10     9    1
   100     9     8    2
   101     5     2    1
   102     5     6    1
   103     2     1    1
   104     8     7    1
   105     6     7    1
