@<TRIPOS>MOLECULE
tmp/1hwyA00.pdb
 121 110 0 0 0
SMALL
GASTEIGER

@<TRIPOS>ATOM
      1  N         10.6000   37.2510   60.9390 N.3    90  LYS90      -0.1231
      2  CA        11.0050   36.1390   61.7830 C.3    90  LYS90       0.1693
      3  C         10.6740   36.3790   63.2380 C.2    90  LYS90       0.2593
      4  O         10.7460   37.5000   63.7210 O.2    90  LYS90      -0.2718
      5  CB        12.5040   35.8800   61.6500 C.3    90  LYS90       0.0285
      6  CG        12.8110   34.6780   60.8100 C.3    90  LYS90       0.0035
      7  CD        14.0100   33.9590   61.3520 C.3    90  LYS90       0.0206
      8  CE        13.8910   32.4840   61.0960 C.3    90  LYS90       0.1093
      9  NZ        12.8500   31.9080   61.9710 N.3    90  LYS90      -0.1314
     10  N         10.3110   35.3090   63.9280 N.am   91  GLY91      -0.1942
     11  CA         9.9690   35.3960   65.3300 C.3    91  GLY91       0.2014
     12  C          9.5030   34.0520   65.8380 C.2    91  GLY91       0.2639
     13  O          9.0410   33.2130   65.0620 O.2    91  GLY91      -0.2714
     14  N          9.6620   33.8120   67.1350 N.am   92  GLY92      -0.1954
     15  CA         9.2260   32.5430   67.7050 C.3    92  GLY92       0.1869
     16  C          7.7450   32.4300   68.0020 C.2    92  GLY92       0.2309
     17  O          7.0200   33.4270   68.0440 O.2    92  GLY92      -0.2863
     18  N         11.6730   41.8000   67.5340 N.3   111  MET111     -0.1245
     19  CA        12.3250   40.9710   66.5440 C.3   111  MET111      0.1570
     20  C         12.9210   41.7880   65.4160 C.2   111  MET111      0.2261
     21  O         14.0580   41.5460   65.0010 O.2   111  MET111     -0.2867
     22  CB        11.3530   39.9640   65.9610 C.3   111  MET111      0.0387
     23  CG        11.0520   38.8280   66.8850 C.3   111  MET111      0.0595
     24  SD        12.4700   37.8840   67.2630 S.3   111  MET111     -0.1393
     25  CE        13.1610   37.8140   65.6340 C.3   111  MET111      0.0692
     26  N         15.7940   43.8830   66.7680 N.3   114  LYS114     -0.1245
     27  CA        16.8090   42.9340   67.1500 C.3   114  LYS114      0.1561
     28  C         17.6070   42.5400   65.8960 C.2   114  LYS114      0.2260
     29  O         18.8150   42.7220   65.8470 O.2   114  LYS114     -0.2867
     30  CB        16.1440   41.7010   67.7600 C.3   114  LYS114      0.0271
     31  CG        17.0740   40.5500   68.0870 C.3   114  LYS114      0.0035
     32  CD        16.2770   39.4210   68.6820 C.3   114  LYS114      0.0206
     33  CE        15.4770   39.9150   69.8610 C.3   114  LYS114      0.1093
     34  NZ        14.7360   38.8050   70.4800 N.3   114  LYS114     -0.1314
     35  N          5.9950   37.6720   65.4320 N.3   126  LYS126     -0.1245
     36  CA         5.9170   36.8570   66.6410 C.3   126  LYS126      0.1561
     37  C          4.5980   36.1060   66.6700 C.2   126  LYS126      0.2260
     38  O          3.5910   36.5990   66.1490 O.2   126  LYS126     -0.2867
     39  CB         6.0570   37.7350   67.8740 C.3   126  LYS126      0.0271
     40  CG         6.5160   36.9870   69.0940 C.3   126  LYS126      0.0035
     41  CD         7.9470   36.5840   68.9660 C.3   126  LYS126      0.0206
     42  CE         8.4420   35.9430   70.2340 C.3   126  LYS126      0.1093
     43  NZ         9.8280   35.4440   70.1110 N.3   126  LYS126     -0.1314
     44  N          9.7760   30.3730   64.6040 N.3   166  ALA166     -0.1231
     45  CA        10.8940   29.7040   65.2500 C.3   166  ALA166      0.1679
     46  C         10.4840   29.4480   66.6920 C.2   166  ALA166      0.2434
     47  O          9.3780   29.7960   67.0760 O.2   166  ALA166     -0.2733
     48  CB        12.1260   30.5880   65.1910 C.3   166  ALA166      0.0304
     49  N         11.3550   28.8320   67.5160 N.am  167  PRO167     -0.2718
     50  CA        10.9390   28.5970   68.9050 C.3   167  PRO167      0.1535
     51  C         10.9300   29.7970   69.8330 C.2   167  PRO167      0.2598
     52  O         11.4720   30.8520   69.5290 O.2   167  PRO167     -0.2715
     53  CB        11.9500   27.5670   69.4060 C.3   167  PRO167      0.0310
     54  CG        12.3530   26.8500   68.1600 C.3   167  PRO167      0.0237
     55  CD        12.5180   28.0010   67.1850 C.3   167  PRO167      0.0939
     56  N         10.2590   29.6130   70.9690 N.am  168  ASN168     -0.1973
     57  CA        10.1860   30.6010   72.0380 C.3   168  ASN168      0.1688
     58  C          9.7270   29.8680   73.2980 C.2   168  ASN168      0.2292
     59  O          9.9590   28.6650   73.4360 O.2   168  ASN168     -0.2864
     60  CB         9.2420   31.7370   71.6940 C.3   168  ASN168      0.1181
     61  CG         9.5700   32.9790   72.4600 C.2   168  ASN168      0.2629
     62  OD1       10.6260   33.5650   72.2800 O.2   168  ASN168     -0.2716
     63  ND2        8.6860   33.3730   73.3440 N.am  168  ASN168     -0.0877
     64  N         12.2550   27.6830   61.3880 N.3   199  THR199     -0.1218
     65  CA        13.6360   27.4230   61.7760 C.3   199  THR199      0.1862
     66  C         13.6550   26.9070   63.2170 C.2   199  THR199      0.2287
     67  O         12.6430   26.9610   63.9130 O.2   199  THR199     -0.2866
     68  CB        14.5130   28.6670   61.6380 C.3   199  THR199      0.1770
     69  OG1       13.9700   29.7210   62.4200 O.3   199  THR199     -0.2211
     70  CG2       14.5630   29.1250   60.2000 C.3   199  THR199      0.0375
     71  N         21.6860   25.4330   67.1340 N.3   211  ARG211     -0.1245
     72  CA        20.5080   26.2810   67.2840 C.3   211  ARG211      0.1563
     73  C         19.9290   26.1920   68.6870 C.2   211  ARG211      0.2260
     74  O         19.4700   27.1940   69.2440 O.2   211  ARG211     -0.2867
     75  CB        19.4360   25.9410   66.2580 C.3   211  ARG211      0.0307
     76  CG        19.1000   27.1110   65.3880 C.3   211  ARG211      0.0489
     77  CD        17.8350   27.7980   65.8040 C.3   211  ARG211      0.2205
     78  NE        17.8900   28.3610   67.1470 N.pl3 211  ARG211     -0.0865
     79  CZ        17.1330   29.3730   67.5630 C.cat 211  ARG211      0.5346
     80  NH1       16.2730   29.9550   66.7390 N.pl3 211  ARG211      0.1354
     81  NH2       17.1600   29.7270   68.8270 N.pl3 211  ARG211      0.1354
     82  N         21.0280   30.7110   71.3870 N.3   215  THR215     -0.1218
     83  CA        20.7220   31.9040   72.1610 C.3   215  THR215      0.1862
     84  C         21.5850   32.0300   73.4110 C.2   215  THR215      0.2287
     85  O         22.0510   33.1220   73.7420 O.2   215  THR215     -0.2866
     86  CB        19.2440   31.9950   72.4870 C.3   215  THR215      0.1770
     87  OG1       18.5060   32.0290   71.2650 O.3   215  THR215     -0.2211
     88  CG2       18.9650   33.2700   73.2690 C.3   215  THR215      0.0375
     89  N         13.1930   38.3120   76.5070 N.3   349  ASN349     -0.1240
     90  CA        12.7090   39.4910   75.7810 C.3   349  ASN349      0.1653
     91  C         12.0680   40.4590   76.7440 C.2   349  ASN349      0.2266
     92  O         11.3490   40.0490   77.6440 O.2   349  ASN349     -0.2867
     93  CB        11.7280   39.1080   74.6640 C.3   349  ASN349      0.1155
     94  CG        12.4480   38.7750   73.3640 C.2   349  ASN349      0.2627
     95  OD1       12.9030   39.6780   72.6510 O.2   349  ASN349     -0.2716
     96  ND2       12.5730   37.4780   73.0590 N.am  349  ASN349     -0.0877
     97  N         20.0460   38.5530   73.1200 N.3   374  ASN374     -0.1240
     98  CA        19.4480   37.2780   72.6780 C.3   374  ASN374      0.1653
     99  C         19.3300   37.1660   71.1370 C.2   374  ASN374      0.2266
    100  O         18.5930   36.3180   70.5880 O.2   374  ASN374     -0.2867
    101  CB        18.1010   37.0140   73.3560 C.3   374  ASN374      0.1155
    102  CG        17.2120   38.2200   73.3700 C.2   374  ASN374      0.2627
    103  OD1       16.6130   38.5920   72.3670 O.2   374  ASN374     -0.2716
    104  ND2       17.1440   38.8580   74.5080 N.am  374  ASN374     -0.0877
    105  N         19.8560   33.7600   68.8480 N.3   377  GLY377     -0.1210
    106  CA        18.8420   32.8400   68.3720 C.3   377  GLY377      0.1956
    107  C         18.5090   33.1210   66.9050 C.2   377  GLY377      0.2611
    108  O         18.5080   32.1770   66.0820 O.2   377  GLY377     -0.2717
    109  N         18.2370   34.3930   66.5580 N.am  378  VAL378     -0.1979
    110  CA        17.9140   34.7340   65.1730 C.3   378  VAL378      0.1595
    111  C         19.0710   34.5860   64.2290 C.2   378  VAL378      0.2287
    112  O         18.8620   34.3320   63.0420 O.2   378  VAL378     -0.2864
    113  CB        17.3790   36.1390   64.9790 C.3   378  VAL378      0.0276
    114  CG1       15.8940   36.1530   65.2000 C.3   378  VAL378      0.0022
    115  CG2       18.0810   37.0980   65.8820 C.3   378  VAL378      0.0022
    116  N         19.3750   30.9430   63.5570 N.3   381  SER381     -0.1217
    117  CA        18.1300   30.6160   62.8690 C.3   381  SER381      0.1889
    118  C         18.2470   31.1150   61.4270 C.2   381  SER381      0.2288
    119  O         17.6470   30.5510   60.4990 O.2   381  SER381     -0.2866
    120  CB        16.9570   31.3200   63.5530 C.3   381  SER381      0.2089
    121  OG        15.9590   30.3930   63.9380 O.3   381  SER381     -0.2183
@<TRIPOS>BOND
     1    70    68    1
     2   119   118    2
     3     6     7    1
     4     6     5    1
     5     1     2    1
     6     8     7    1
     7     8     9    1
     8    64    65    1
     9   118   117    1
    10    68    65    1
    11    68    69    1
    12     5     2    1
    13    65    66    1
    14     2     3    1
    15   117   120    1
    16   117   116    1
    17   112   111    2
    18    66    67    2
    19     3     4    2
    20     3    10   am
    21   120   121    1
    22    10    11    1
    23   111   110    1
    24    44    45    1
    25   113   110    1
    26   113   114    1
    27   113   115    1
    28    21    20    2
    29    13    12    2
    30   110   109    1
    31    48    45    1
    32    45    46    1
    33    11    12    1
    34    76    77    1
    35    76    75    1
    36    20    19    1
    37    35    36    1
    38    25    24    1
    39    77    78    1
    40    12    14   am
    41    29    28    2
    42    28    27    1
    43    22    19    1
    44    22    23    1
    45   108   107    2
    46    38    37    2
    47    75    72    1
    48    19    18    1
    49   109   107   am
    50    36    37    1
    51    36    39    1
    52    46    47    2
    53    46    49   am
    54    80    79    1
    55    26    27    1
    56    23    24    1
    57   107   106    1
    58    71    72    1
    59    14    15    1
    60    78    79    2
    61    27    30    1
    62    55    49    1
    63    55    54    1
    64    72    73    1
    65    49    50    1
    66    79    81    1
    67    15    16    1
    68    30    31    1
    69    39    40    1
    70    16    17    2
    71    31    32    1
    72    54    53    1
    73   106   105    1
    74    32    33    1
    75    73    74    2
    76    50    53    1
    77    50    51    1
    78    41    40    1
    79    41    42    1
    80    52    51    2
    81    51    56   am
    82    33    34    1
    83    43    42    1
    84   100    99    2
    85    56    57    1
    86    99    98    1
    87    87    86    1
    88    82    83    1
    89    60    57    1
    90    60    61    1
    91    57    58    1
    92    83    86    1
    93    83    84    1
    94    62    61    2
    95   103   102    2
    96    61    63   am
    97    86    88    1
    98    95    94    2
    99    98    97    1
   100    98   101    1
   101    96    94   am
   102    58    59    2
   103   101   102    1
   104    94    93    1
   105   102   104   am
   106    84    85    2
   107    93    90    1
   108    90    89    1
   109    90    91    1
   110    91    92    2
