@<TRIPOS>MOLECULE
tmp/1hwyA01.pdb
 107 103 0 0 0
SMALL
GASTEIGER

@<TRIPOS>ATOM
      1  N         10.6960   23.5130   53.3120 N.3   195  HIS195     -0.1241
      2  CA        11.1540   23.3880   54.6920 C.3   195  HIS195      0.1621
      3  C         11.8640   24.5960   55.3350 C.2   195  HIS195      0.2264
      4  O         12.4530   24.4590   56.3940 O.2   195  HIS195     -0.2867
      5  CB        12.0660   22.1780   54.8560 C.3   195  HIS195      0.0745
      6  CG        11.4990   20.9010   54.3290 C.ar  195  HIS195      0.0817
      7  ND1       11.3660   20.6520   52.9770 N.ar  195  HIS195     -0.2268
      8  CD2       11.0210   19.8020   54.9570 C.ar  195  HIS195      0.1154
      9  CE1       10.8270   19.4570   52.8010 C.ar  195  HIS195      0.1986
     10  NE2       10.6070   18.9260   53.9910 N.ar  195  HIS195     -0.2212
     11  N         17.5380   18.3780   63.6610 N.3   203  ILE203     -0.1231
     12  CA        18.5760   18.1650   62.6400 C.3   203  ILE203      0.1692
     13  C         18.0860   17.2210   61.5440 C.2   203  ILE203      0.2593
     14  O         18.2820   17.5050   60.3570 O.2   203  ILE203     -0.2718
     15  CB        19.8930   17.6180   63.2630 C.3   203  ILE203      0.0266
     16  CG1       20.5490   18.6910   64.1140 C.3   203  ILE203      0.0019
     17  CG2       20.8690   17.1860   62.1890 C.3   203  ILE203      0.0020
     18  CD1       21.1230   19.8240   63.3250 C.3   203  ILE203      0.0001
     19  N         17.3810   16.1550   61.9410 N.am  204  SER204     -0.1938
     20  CA        16.8680   15.1670   60.9920 C.3   204  SER204      0.2055
     21  C         15.8040   15.7700   60.0650 C.2   204  SER204      0.2643
     22  O         15.4290   15.1520   59.0570 O.2   204  SER204     -0.2714
     23  CB        16.2640   13.9760   61.7450 C.3   204  SER204      0.2130
     24  OG        15.2530   14.4160   62.6400 O.3   204  SER204     -0.2179
     25  N         15.3170   16.9570   60.4210 N.am  205  GLN205     -0.1963
     26  CA        14.2940   17.6110   59.6570 C.3   205  GLN205      0.1733
     27  C         14.8460   18.7970   58.8740 C.2   205  GLN205      0.2616
     28  O         14.1270   19.4360   58.1100 O.2   205  GLN205     -0.2715
     29  CB        13.1690   18.0460   60.6000 C.3   205  GLN205      0.0408
     30  CG        12.5990   16.9200   61.4890 C.3   205  GLN205      0.0908
     31  CD        12.0010   15.7660   60.6900 C.2   205  GLN205      0.2608
     32  OE1       11.3630   15.9740   59.6610 O.2   205  GLN205     -0.2717
     33  NE2       12.1960   14.5490   61.1690 N.am  205  GLN205     -0.0878
     34  N         16.1280   19.0720   59.0370 N.am  206  GLY206     -0.1955
     35  CA        16.7220   20.1770   58.3090 C.3   206  GLY206      0.1869
     36  C         17.2180   21.2750   59.2260 C.2   206  GLY206      0.2309
     37  O         17.2700   22.4560   58.8700 O.2   206  GLY206     -0.2863
     38  N         23.3090   22.5730   63.4290 N.3   209  HIS209     -0.1241
     39  CA        24.0050   22.3810   64.6890 C.3   209  HIS209      0.1621
     40  C         24.3280   23.6820   65.4320 C.2   209  HIS209      0.2264
     41  O         25.0770   24.5460   64.9580 O.2   209  HIS209     -0.2867
     42  CB        25.2920   21.5810   64.4780 C.3   209  HIS209      0.0745
     43  CG        25.0610   20.1310   64.2450 C.ar  209  HIS209      0.0817
     44  ND1       24.6910   19.6110   63.0170 N.ar  209  HIS209     -0.2268
     45  CD2       25.1030   19.0750   65.0910 C.ar  209  HIS209      0.1154
     46  CE1       24.5200   18.3060   63.1250 C.ar  209  HIS209      0.1986
     47  NE2       24.7570   17.9520   64.3740 N.ar  209  HIS209     -0.2212
     48  N         20.8630   27.7710   55.2120 N.3   387  LYS387     -0.1231
     49  CA        21.2190   26.3840   54.9390 C.3   387  LYS387      0.1693
     50  C         20.1700   25.7210   54.0850 C.2   387  LYS387      0.2592
     51  O         20.4790   25.1260   53.0500 O.2   387  LYS387     -0.2718
     52  CB        21.3920   25.6170   56.2510 C.3   387  LYS387      0.0285
     53  CG        21.6560   24.1530   56.1100 C.3   387  LYS387      0.0035
     54  CD        21.9760   23.6040   57.4610 C.3   387  LYS387      0.0206
     55  CE        21.7010   22.1260   57.5440 C.3   387  LYS387      0.1093
     56  NZ        22.5310   21.3160   56.6150 N.3   387  LYS387     -0.1314
     57  N         18.9200   25.8870   54.4980 N.am  388  ASN388     -0.1974
     58  CA        17.7730   25.2920   53.8220 C.3   388  ASN388      0.1688
     59  C         17.7040   25.7450   52.3880 C.2   388  ASN388      0.2292
     60  O         17.4200   24.9490   51.4850 O.2   388  ASN388     -0.2864
     61  CB        16.4860   25.6580   54.5710 C.3   388  ASN388      0.1181
     62  CG        16.3760   24.9480   55.9040 C.2   388  ASN388      0.2629
     63  OD1       17.1660   24.0550   56.2030 O.2   388  ASN388     -0.2716
     64  ND2       15.3950   25.3310   56.7070 N.am  388  ASN388     -0.0877
     65  N         20.4360   24.0560   50.2570 N.3   391  HIS391     -0.1226
     66  CA        20.2050   22.6420   50.0350 C.3   391  HIS391      0.1752
     67  C         21.4070   21.7220   50.2200 C.2   391  HIS391      0.2596
     68  O         21.3650   20.5510   49.8440 O.2   391  HIS391     -0.2718
     69  CB        19.5240   22.4090   48.6920 C.3   391  HIS391      0.0759
     70  CG        18.1130   22.9140   48.6460 C.ar  391  HIS391      0.0818
     71  ND1       17.7650   24.0930   48.0180 N.ar  391  HIS391     -0.2268
     72  CD2       16.9730   22.4210   49.1830 C.ar  391  HIS391      0.1154
     73  CE1       16.4700   24.3070   48.1660 C.ar  391  HIS391      0.1986
     74  NE2       15.9690   23.3100   48.8680 N.ar  391  HIS391     -0.2212
     75  N         22.4340   22.2290   50.8950 N.am  392  VAL392     -0.1966
     76  CA        23.6620   21.4770   51.1830 C.3   392  VAL392      0.1727
     77  C         24.1840   21.7950   52.5590 C.2   392  VAL392      0.2616
     78  O         24.2870   22.9550   52.9590 O.2   392  VAL392     -0.2715
     79  CB        24.8570   21.8700   50.3010 C.3   392  VAL392      0.0290
     80  CG1       25.4440   20.6620   49.6290 C.3   392  VAL392      0.0023
     81  CG2       24.4930   22.9520   49.3250 C.3   392  VAL392      0.0023
     82  N         24.6180   20.7480   53.2310 N.am  393  SER393     -0.1950
     83  CA        25.2020   20.8610   54.5480 C.3   393  SER393      0.1924
     84  C         26.5650   21.4430   54.3020 C.2   393  SER393      0.2314
     85  O         27.2660   20.9970   53.4110 O.2   393  SER393     -0.2863
     86  CB        25.3520   19.4690   55.1460 C.3   393  SER393      0.2116
     87  OG        25.2770   18.4560   54.1300 O.3   393  SER393     -0.2180
     88  N         30.3520   19.5200   52.7380 N.3   396  ARG396     -0.1245
     89  CA        30.1800   18.3430   51.8890 C.3   396  ARG396      0.1563
     90  C         30.7800   18.4250   50.4920 C.2   396  ARG396      0.2260
     91  O         31.4080   17.4610   50.0450 O.2   396  ARG396     -0.2867
     92  CB        28.6870   17.9360   51.8350 C.3   396  ARG396      0.0307
     93  CG        28.1260   17.3090   50.5270 C.3   396  ARG396      0.0489
     94  CD        28.8100   15.9870   50.1320 C.3   396  ARG396      0.2205
     95  NE        27.9070   15.0130   49.4990 N.pl3 396  ARG396     -0.0865
     96  CZ        26.7970   14.5370   50.0540 C.cat 396  ARG396      0.5346
     97  NH1       26.4110   14.9520   51.2480 N.pl3 396  ARG396      0.1354
     98  NH2       26.1200   13.5840   49.4500 N.pl3 396  ARG396      0.1354
     99  N         29.5850   22.8140   59.0870 N.3   445  GLU445     -0.1245
    100  CA        28.3830   23.5020   59.5500 C.3   445  GLU445      0.1567
    101  C         28.5390   24.0310   60.9790 C.2   445  GLU445      0.2260
    102  O         28.1440   25.1650   61.2850 O.2   445  GLU445     -0.2867
    103  CB        27.2050   22.5420   59.4810 C.3   445  GLU445      0.0388
    104  CG        25.9640   22.9580   60.2360 C.3   445  GLU445      0.1160
    105  CD        24.8490   22.0100   59.9450 C.2   445  GLU445      0.3649
    106  OE1       24.5890   21.7730   58.7470 O.co2 445  GLU445     -0.2457
    107  OE2       24.2650   21.4700   60.8980 O.co2 445  GLU445     -0.2457
@<TRIPOS>BOND
     1    71    73   ar
     2    71    70   ar
     3    73    74   ar
     4    70    69    1
     5    70    72   ar
     6    69    66    1
     7    74    72   ar
     8    81    79    1
     9    98    96    1
    10    95    96    2
    11    95    94    1
    12    80    79    1
    13    68    67    2
    14    66    67    1
    15    66    65    1
    16    91    90    2
    17    96    97    1
    18    94    93    1
    19    67    75   am
    20    79    76    1
    21    90    89    1
    22    93    92    1
    23    75    76    1
    24    76    77    1
    25    60    59    2
    26    92    89    1
    27    89    88    1
    28    59    58    1
    29    77    78    2
    30    77    82   am
    31     9     7   ar
    32     9    10   ar
    33     7     6   ar
    34    51    50    2
    35    82    83    1
    36     1     2    1
    37    85    84    2
    38    58    57    1
    39    58    61    1
    40    10     8   ar
    41    50    57   am
    42    50    49    1
    43    87    86    1
    44    84    83    1
    45     6     5    1
    46     6     8   ar
    47    83    86    1
    48    61    62    1
    49     2     5    1
    50     2     3    1
    51    49    48    1
    52    49    52    1
    53     3     4    2
    54    62    63    2
    55    62    64   am
    56    53    52    1
    57    53    54    1
    58    56    55    1
    59    54    55    1
    60    28    27    2
    61    35    34    1
    62    35    36    1
    63   106   105   ar
    64    37    36    2
    65    27    34   am
    66    27    26    1
    67    22    21    2
    68    99   100    1
    69   103   100    1
    70   103   104    1
    71   100   101    1
    72    26    25    1
    73    26    29    1
    74    32    31    2
    75   105   104    1
    76   105   107   ar
    77    21    25   am
    78    21    20    1
    79    14    13    2
    80    29    30    1
    81    31    33   am
    82    31    30    1
    83   101   102    2
    84    20    23    1
    85    20    19    1
    86    13    19   am
    87    13    12    1
    88    23    24    1
    89    17    15    1
    90    12    15    1
    91    12    11    1
    92    44    46   ar
    93    44    43   ar
    94    46    47   ar
    95    15    16    1
    96    18    16    1
    97    38    39    1
    98    43    42    1
    99    43    45   ar
   100    47    45   ar
   101    42    39    1
   102    39    40    1
   103    41    40    2
