@<TRIPOS>MOLECULE
tmp/1hx0A00.pdb
 218 215 0 0 0
SMALL
GASTEIGER

@<TRIPOS>ATOM
      1  N         23.9340   23.4540   57.6370 N.3    57  TRP57      -0.1227
      2  CA        24.3520   22.9650   56.3200 C.3    57  TRP57       0.1737
      3  C         25.2390   21.7410   56.3930 C.2    57  TRP57       0.2595
      4  O         25.2010   20.8260   55.5560 O.2    57  TRP57      -0.2718
      5  CB        25.0080   24.1010   55.4880 C.3    57  TRP57       0.0564
      6  CG        26.2460   24.6310   56.1620 C.ar   57  TRP57       0.0003
      7  CD1       26.3150   25.6560   57.0650 C.ar   57  TRP57       0.0946
      8  CD2       27.6020   24.1740   56.0050 C.ar   57  TRP57       0.0152
      9  NE1       27.6130   25.8720   57.4870 N.ar   57  TRP57      -0.2442
     10  CE2       28.4080   24.9540   56.8330 C.ar   57  TRP57       0.0810
     11  CE3       28.1600   23.1530   55.2210 C.ar   57  TRP57       0.0012
     12  CZ2       29.7740   24.7700   56.9290 C.ar   57  TRP57       0.0191
     13  CZ3       29.5370   22.9710   55.3130 C.ar   57  TRP57       0.0001
     14  CH2       30.3070   23.7820   56.1550 C.ar   57  TRP57       0.0015
     15  N         26.0590   21.7430   57.4380 N.am   58  TRP58      -0.1976
     16  CA        27.0870   20.7230   57.4980 C.3    58  TRP58       0.1640
     17  C         26.6180   19.3540   57.9090 C.2    58  TRP58       0.2290
     18  O         27.4050   18.4020   57.8590 O.2    58  TRP58      -0.2864
     19  CB        28.2350   21.2260   58.3490 C.3    58  TRP58       0.0576
     20  CG        28.0140   21.8210   59.6770 C.ar   58  TRP58       0.0006
     21  CD1       28.1990   23.1360   59.9880 C.ar   58  TRP58       0.0946
     22  CD2       27.5890   21.1670   60.8880 C.ar   58  TRP58       0.0152
     23  NE1       27.9100   23.3810   61.3150 N.ar   58  TRP58      -0.2442
     24  CE2       27.5500   22.1850   61.8940 C.ar   58  TRP58       0.0810
     25  CE3       27.2600   19.8730   61.2580 C.ar   58  TRP58       0.0012
     26  CZ2       27.1860   21.8990   63.2100 C.ar   58  TRP58       0.0191
     27  CZ3       26.8960   19.5820   62.5680 C.ar   58  TRP58       0.0001
     28  CH2       26.8620   20.5980   63.5250 C.ar   58  TRP58       0.0015
     29  N         27.5610   16.6300   55.4030 N.3    61  TYR61      -0.1227
     30  CA        28.9040   16.0030   55.3410 C.3    61  TYR61       0.1736
     31  C         29.0580   14.8880   56.3490 C.2    61  TYR61       0.2595
     32  O         30.1770   14.5010   56.6740 O.2    61  TYR61      -0.2718
     33  CB        29.9850   17.1190   55.4680 C.3    61  TYR61       0.0548
     34  CG        29.8600   17.9670   54.1910 C.ar   61  TYR61      -0.0200
     35  CD1       29.1180   19.1130   54.1470 C.ar   61  TYR61      -0.0009
     36  CD2       30.4400   17.5670   52.9990 C.ar   61  TYR61      -0.0009
     37  CE1       29.0010   19.8650   53.0050 C.ar   61  TYR61       0.0417
     38  CE2       30.2980   18.2770   51.8280 C.ar   61  TYR61       0.0417
     39  CZ        29.5700   19.4280   51.8020 C.ar   61  TYR61       0.1957
     40  OH        29.4020   20.1760   50.6800 O.3    61  TYR61      -0.2866
     41  N         27.9290   14.3630   56.8480 N.am   62  GLN62      -0.1979
     42  CA        27.8510   13.2330   57.7650 C.3    62  GLN62       0.1601
     43  C         26.9910   12.0910   57.1990 C.2    62  GLN62       0.2287
     44  O         25.8150   11.9210   57.5800 O.2    62  GLN62      -0.2864
     45  CB        27.2970   13.6700   59.1110 C.3    62  GLN62       0.0394
     46  CG        28.2750   14.6080   59.8390 C.3    62  GLN62       0.0908
     47  CD        27.9130   14.8340   61.2870 C.2    62  GLN62       0.2608
     48  OE1       27.6180   13.8670   62.0250 O.2    62  GLN62      -0.2717
     49  NE2       27.9150   16.0680   61.7320 N.am   62  GLN62      -0.0878
     50  N         34.5090    9.3930   55.0950 N.3   100  HIS100     -0.1241
     51  CA        33.9670    9.1600   56.4140 C.3   100  HIS100      0.1621
     52  C         32.4780    8.9190   56.3680 C.2   100  HIS100      0.2264
     53  O         31.8390    9.2100   55.3600 O.2   100  HIS100     -0.2867
     54  CB        34.2860   10.3760   57.3060 C.3   100  HIS100      0.0745
     55  CG        33.8480   11.6640   56.7210 C.ar  100  HIS100      0.0817
     56  ND1       34.5600   12.5150   55.9680 N.ar  100  HIS100     -0.2268
     57  CD2       32.6760   12.3380   56.7150 C.ar  100  HIS100      0.1154
     58  CE1       34.0740   13.6150   55.5400 C.ar  100  HIS100      0.1986
     59  NE2       32.8240   13.4790   56.0120 N.ar  100  HIS100     -0.2212
     60  N         29.4150   11.5630   62.5920 N.3   103  GLY103     -0.1210
     61  CA        30.1650   11.8230   63.8160 C.3   103  GLY103      0.1956
     62  C         30.1870   10.5860   64.7050 C.2   103  GLY103      0.2613
     63  O         29.1720    9.9120   64.9310 O.2   103  GLY103     -0.2717
     64  N         31.3730   10.2990   65.2190 N.am  104  SER104     -0.1938
     65  CA        31.5690    9.1390   66.0850 C.3   104  SER104      0.2055
     66  C         30.7990    9.2600   67.4020 C.2   104  SER104      0.2644
     67  O         30.5820    8.2180   68.0690 O.2   104  SER104     -0.2714
     68  CB        33.0590    8.9100   66.3460 C.3   104  SER104      0.2130
     69  OG        33.6390   10.0480   66.9630 O.3   104  SER104     -0.2179
     70  N         30.4090   10.4710   67.7670 N.am  105  GLY105     -0.1939
     71  CA        29.7130   10.6720   69.0410 C.3   105  GLY105      0.2014
     72  C         28.2120   10.7340   68.8360 C.2   105  GLY105      0.2638
     73  O         27.4580   10.9630   69.7960 O.2   105  GLY105     -0.2714
     74  N         27.7360   10.4690   67.6230 N.am  106  ALA106     -0.1977
     75  CA        26.2970   10.6260   67.3520 C.3   106  ALA106      0.1597
     76  C         25.4910    9.5090   67.9720 C.2   106  ALA106      0.2287
     77  O         25.9640    8.3960   68.1590 O.2   106  ALA106     -0.2864
     78  CB        26.0630   10.7210   65.8580 C.3   106  ALA106      0.0319
     79  N         48.5100   18.5040   61.8320 N.3   150  TYR150     -0.1241
     80  CA        48.5110   18.4480   60.3780 C.3   150  TYR150      0.1605
     81  C         49.9310   18.2870   59.8650 C.2   150  TYR150      0.2264
     82  O         50.0900   18.1220   58.6470 O.2   150  TYR150     -0.2867
     83  CB        47.8250   19.6580   59.7430 C.3   150  TYR150      0.0534
     84  CG        46.3290   19.4580   59.6350 C.ar  150  TYR150     -0.0201
     85  CD1       45.7460   19.0500   58.4230 C.ar  150  TYR150     -0.0009
     86  CD2       45.4990   19.6560   60.7210 C.ar  150  TYR150     -0.0009
     87  CE1       44.3650   18.8580   58.3080 C.ar  150  TYR150      0.0417
     88  CE2       44.1340   19.4630   60.6290 C.ar  150  TYR150      0.0417
     89  CZ        43.5770   19.0730   59.4330 C.ar  150  TYR150      0.1957
     90  OH        42.2090   18.8640   59.2920 O.3   150  TYR150     -0.2866
     91  N         40.3990   10.5840   62.7830 N.3   160  GLN160     -0.1231
     92  CA        39.1250   11.2160   62.5280 C.3   160  GLN160      0.1698
     93  C         39.2620   12.7100   62.3270 C.2   160  GLN160      0.2592
     94  O         39.8140   13.4250   63.1400 O.2   160  GLN160     -0.2718
     95  CB        38.1800   10.9360   63.6920 C.3   160  GLN160      0.0381
     96  CG        37.8360    9.4640   63.8770 C.3   160  GLN160      0.0905
     97  CD        37.0210    9.1720   65.1070 C.2   160  GLN160      0.2608
     98  OE1       36.7670   10.0230   65.9630 O.2   160  GLN160     -0.2717
     99  NE2       36.5930    7.9170   65.1930 N.am  160  GLN160     -0.0878
    100  N         38.7010   13.1630   61.2050 N.am  161  LEU161     -0.1966
    101  CA        38.5260   14.5910   60.9380 C.3   161  LEU161      0.1728
    102  C         37.3110   15.1140   61.7080 C.2   161  LEU161      0.2616
    103  O         36.2030   14.5990   61.4630 O.2   161  LEU161     -0.2715
    104  CB        38.3220   14.7530   59.4250 C.3   161  LEU161      0.0311
    105  CG        37.8470   16.1380   58.9580 C.3   161  LEU161      0.0022
    106  CD1       38.8910   17.1950   59.2520 C.3   161  LEU161      0.0001
    107  CD2       37.5630   16.1350   57.4490 C.3   161  LEU161      0.0001
    108  N         37.4700   16.0610   62.6090 N.am  162  VAL162     -0.1963
    109  CA        36.4340   16.5820   63.5000 C.3   162  VAL162      0.1727
    110  C         35.4870   15.4930   63.9960 C.2   162  VAL162      0.2617
    111  O         34.2910   15.6220   64.0490 O.2   162  VAL162     -0.2715
    112  CB        35.6440   17.7760   62.9170 C.3   162  VAL162      0.0290
    113  CG1       36.6180   18.9390   62.7620 C.3   162  VAL162      0.0023
    114  CG2       34.9480   17.4980   61.6040 C.3   162  VAL162      0.0023
    115  N         36.0720   14.3980   64.4540 N.am  163  GLY163     -0.1940
    116  CA        35.2760   13.3410   65.0560 C.3   163  GLY163      0.2014
    117  C         34.4930   12.4710   64.1210 C.2   163  GLY163      0.2638
    118  O         33.7490   11.6040   64.6250 O.2   163  GLY163     -0.2714
    119  N         34.6520   12.6220   62.8140 N.am  164  LEU164     -0.1977
    120  CA        33.8740   11.8160   61.8830 C.3   164  LEU164      0.1596
    121  C         34.4650   10.4220   61.7030 C.2   164  LEU164      0.2287
    122  O         35.7040   10.2960   61.5940 O.2   164  LEU164     -0.2864
    123  CB        33.9130   12.5490   60.5520 C.3   164  LEU164      0.0297
    124  CG        33.2720   13.9290   60.5330 C.3   164  LEU164      0.0022
    125  CD1       33.7090   14.7140   59.3090 C.3   164  LEU164      0.0001
    126  CD2       31.7420   13.8000   60.5410 C.3   164  LEU164      0.0001
    127  N         33.2800   16.1500   42.7990 N.3   194  ARG194     -0.1245
    128  CA        34.1410   16.7920   43.7710 C.3   194  ARG194      0.1563
    129  C         34.4400   15.7670   44.8730 C.2   194  ARG194      0.2260
    130  O         33.4730   15.2640   45.4670 O.2   194  ARG194     -0.2867
    131  CB        33.4210   17.9910   44.3610 C.3   194  ARG194      0.0307
    132  CG        34.2210   18.5930   45.5120 C.3   194  ARG194      0.0489
    133  CD        33.3400   19.3770   46.3950 C.3   194  ARG194      0.2205
    134  NE        34.0370   20.0520   47.4660 N.pl3 194  ARG194     -0.0865
    135  CZ        34.0520   19.7950   48.7480 C.cat 194  ARG194      0.5346
    136  NH1       33.3820   18.7910   49.2850 N.pl3 194  ARG194      0.1354
    137  NH2       34.7750   20.5660   49.5400 N.pl3 194  ARG194      0.1354
    138  N         35.2650   15.1960   48.2540 N.3   196  ASP196     -0.1225
    139  CA        35.3770   15.8580   49.5410 C.3   196  ASP196      0.1805
    140  C         36.5290   15.3250   50.3800 C.2   196  ASP196      0.2597
    141  O         36.7690   14.1330   50.4250 O.2   196  ASP196     -0.2718
    142  CB        34.0640   15.6750   50.2980 C.3   196  ASP196      0.1424
    143  CG        34.0470   16.2590   51.6890 C.2   196  ASP196      0.3668
    144  OD1       33.9690   15.4660   52.6570 O.co2 196  ASP196     -0.2456
    145  OD2       34.0780   17.5200   51.7210 O.co2 196  ASP196     -0.2456
    146  N         37.2030   16.2340   51.0880 N.am  197  ALA197     -0.1979
    147  CA        38.1600   15.7880   52.0890 C.3   197  ALA197      0.1597
    148  C         39.2420   14.8790   51.5170 C.2   197  ALA197      0.2287
    149  O         39.7110   13.9540   52.1890 O.2   197  ALA197     -0.2864
    150  CB        37.4690   15.1300   53.2740 C.3   197  ALA197      0.0319
    151  N         42.3090   15.4740   51.0970 N.3   199  LYS199     -0.1231
    152  CA        43.5270   15.5280   51.8860 C.3   199  LYS199      0.1693
    153  C         43.5730   14.4080   52.9340 C.2   199  LYS199      0.2592
    154  O         44.6550   14.0020   53.3690 O.2   199  LYS199     -0.2718
    155  CB        43.5920   16.8680   52.5920 C.3   199  LYS199      0.0285
    156  CG        44.8230   17.1860   53.3410 C.3   199  LYS199      0.0035
    157  CD        44.6300   18.6090   53.9150 C.3   199  LYS199      0.0206
    158  CE        45.9070   19.2230   54.2330 C.3   199  LYS199      0.1093
    159  NZ        45.7290   20.6170   54.7490 N.3   199  LYS199     -0.1314
    160  N         42.4170   13.9700   53.3790 N.am  200  HIS200     -0.1976
    161  CA        42.2380   13.0110   54.4490 C.3   200  HIS200      0.1656
    162  C         42.2170   11.5780   53.9480 C.2   200  HIS200      0.2291
    163  O         41.9740   10.6750   54.7550 O.2   200  HIS200     -0.2864
    164  CB        40.9620   13.3630   55.2390 C.3   200  HIS200      0.0771
    165  CG        41.1380   14.7240   55.8150 C.ar  200  HIS200      0.0820
    166  ND1       41.8620   14.9530   56.9600 N.ar  200  HIS200     -0.2267
    167  CD2       40.7450   15.9480   55.3890 C.ar  200  HIS200      0.1154
    168  CE1       41.8870   16.2730   57.1970 C.ar  200  HIS200      0.1986
    169  NE2       41.2090   16.9020   56.2680 N.ar  200  HIS200     -0.2212
    170  N         39.1900   17.9270   46.6670 N.3   232  GLU232     -0.1245
    171  CA        39.3230   19.0100   47.6330 C.3   232  GLU232      0.1567
    172  C         40.5260   18.7710   48.5250 C.2   232  GLU232      0.2260
    173  O         40.4550   17.8970   49.3940 O.2   232  GLU232     -0.2867
    174  CB        38.0690   19.1910   48.4880 C.3   232  GLU232      0.0388
    175  CG        38.2130   20.4020   49.4230 C.3   232  GLU232      0.1160
    176  CD        37.7700   20.2130   50.8400 C.2   232  GLU232      0.3649
    177  OE1       37.5760   21.2220   51.5740 O.co2 232  GLU232     -0.2457
    178  OE2       37.6480   19.0450   51.2630 O.co2 232  GLU232     -0.2457
    179  N         43.1200   21.3010   50.6690 N.3   234  ILE234     -0.1245
    180  CA        43.4980   22.6450   51.0750 C.3   234  ILE234      0.1561
    181  C         44.9930   22.6580   51.2960 C.2   234  ILE234      0.2260
    182  O         45.4680   21.9890   52.1950 O.2   234  ILE234     -0.2867
    183  CB        42.7670   23.1050   52.3450 C.3   234  ILE234      0.0252
    184  CG1       41.2490   23.1630   52.1620 C.3   234  ILE234      0.0019
    185  CG2       43.3440   24.4520   52.7840 C.3   234  ILE234      0.0019
    186  CD1       40.4250   23.4890   53.3780 C.3   234  ILE234      0.0001
    187  N         31.8820   27.0060   49.6150 N.3   298  HIS298     -0.1226
    188  CA        30.8290   26.9740   50.6100 C.3   298  HIS298      0.1752
    189  C         31.4050   26.9980   52.0220 C.2   298  HIS298      0.2596
    190  O         30.7160   27.4220   52.9440 O.2   298  HIS298     -0.2718
    191  CB        29.9130   25.7550   50.4320 C.3   298  HIS298      0.0759
    192  CG        30.5740   24.4720   50.7710 C.ar  298  HIS298      0.0818
    193  ND1       31.4040   23.8020   49.8610 N.ar  298  HIS298     -0.2268
    194  CD2       30.5660   23.7380   51.9120 C.ar  298  HIS298      0.1154
    195  CE1       31.8130   22.7250   50.5030 C.ar  298  HIS298      0.1986
    196  NE2       31.3560   22.6350   51.7160 N.ar  298  HIS298     -0.2212
    197  N         32.5870   26.4880   52.2400 N.am  299  ASP299     -0.1974
    198  CA        33.2640   26.5310   53.5460 C.3   299  ASP299      0.1709
    199  C         33.7620   27.9410   53.8500 C.2   299  ASP299      0.2293
    200  O         33.4400   28.5540   54.8770 O.2   299  ASP299     -0.2864
    201  CB        34.4280   25.5440   53.6620 C.3   299  ASP299      0.1436
    202  CG        34.1230   24.0950   53.8450 C.2   299  ASP299      0.3671
    203  OD1       34.9350   23.2540   53.3970 O.co2 299  ASP299     -0.2456
    204  OD2       33.0740   23.8210   54.4390 O.co2 299  ASP299     -0.2456
    205  N         34.6800   28.6670   57.5030 N.3   304  HIS304     -0.1226
    206  CA        35.1230   27.2460   57.6430 C.3   304  HIS304      0.1752
    207  C         36.2980   27.0050   56.7080 C.2   304  HIS304      0.2596
    208  O         36.5800   27.8770   55.8780 O.2   304  HIS304     -0.2718
    209  CB        33.9690   26.2850   57.3630 C.3   304  HIS304      0.0759
    210  CG        32.9390   26.1880   58.4440 C.ar  304  HIS304      0.0818
    211  ND1       32.6760   24.9970   59.0870 N.ar  304  HIS304     -0.2268
    212  CD2       32.0710   27.0460   59.0210 C.ar  304  HIS304      0.1154
    213  CE1       31.7290   25.1050   59.9960 C.ar  304  HIS304      0.1986
    214  NE2       31.3360   26.3940   59.9750 N.ar  304  HIS304     -0.2212
    215  N         36.9860   25.8730   56.7710 N.am  305  GLY305     -0.1957
    216  CA        38.0580   25.5470   55.8020 C.3   305  GLY305      0.1869
    217  C         39.1800   26.5900   55.8690 C.2   305  GLY305      0.2309
    218  O         39.6160   26.9080   56.9720 O.2   305  GLY305     -0.2863
@<TRIPOS>BOND
     1   127   128    1
     2   128   131    1
     3   128   129    1
     4   131   132    1
     5   129   130    2
     6   132   133    1
     7   133   134    1
     8   170   171    1
     9   134   135    2
    10   171   174    1
    11   171   172    1
    12   138   139    1
    13   174   175    1
    14   172   173    2
    15   135   136    1
    16   135   137    1
    17   175   176    1
    18   139   142    1
    19   139   140    1
    20   187   188    1
    21   193   195   ar
    22   193   192   ar
    23   142   143    1
    24   140   141    2
    25   140   146   am
    26   191   188    1
    27   191   192    1
    28   195   196   ar
    29   188   189    1
    30   179   180    1
    31    40    39    1
    32   192   194   ar
    33   176   178   ar
    34   176   177   ar
    35   180   181    1
    36   180   183    1
    37   146   147    1
    38   151   152    1
    39   181   182    2
    40   148   147    1
    41   148   149    2
    42   143   145   ar
    43   143   144   ar
    44   196   194   ar
    45    39    38   ar
    46    39    37   ar
    47    38    36   ar
    48   152   155    1
    49   152   153    1
    50   189   197   am
    51   189   190    2
    52   147   150    1
    53   184   183    1
    54   184   186    1
    55   197   198    1
    56   183   185    1
    57   155   156    1
    58   153   154    2
    59   153   160   am
    60    36    34   ar
    61    37    35   ar
    62   156   157    1
    63   160   161    1
    64   203   202   ar
    65   198   201    1
    66   198   199    1
    67   201   202    1
    68   202   204   ar
    69   199   200    2
    70   157   158    1
    71   162   161    1
    72   162   163    2
    73    35    34   ar
    74    34    33    1
    75   158   159    1
    76   161   164    1
    77    50    51    1
    78    11    13   ar
    79    11     8   ar
    80   164   165    1
    81    13    14   ar
    82    30    29    1
    83    30    33    1
    84    30    31    1
    85    53    52    2
    86   167   165   ar
    87   167   169   ar
    88     5     6    1
    89     5     2    1
    90    58    56   ar
    91    58    59   ar
    92     4     3    2
    93   216   217    1
    94   216   215    1
    95   165   166   ar
    96   217   218    2
    97   208   207    2
    98    56    55   ar
    99     8     6   ar
   100     8    10   ar
   101    59    57   ar
   102    14    12   ar
   103     6     7   ar
   104   169   168   ar
   105     2     3    1
   106     2     1    1
   107    31    32    2
   108    31    41   am
   109    52    51    1
   110     3    15   am
   111    51    54    1
   112   207   215   am
   113   207   206    1
   114    57    55   ar
   115    55    54    1
   116    10    12   ar
   117    10     9   ar
   118    41    42    1
   119   166   168   ar
   120     7     9   ar
   121    43    44    2
   122    43    42    1
   123   209   206    1
   124   209   210    1
   125    15    16    1
   126   107   105    1
   127    16    17    1
   128    16    19    1
   129   205   206    1
   130    42    45    1
   131    18    17    2
   132    87    85   ar
   133    87    89   ar
   134    19    20    1
   135    85    84   ar
   136   210   212   ar
   137   210   211   ar
   138    82    81    2
   139   105   106    1
   140   105   104    1
   141   212   214   ar
   142   211   213   ar
   143    45    46    1
   144    90    89    1
   145   125   124    1
   146   104   101    1
   147    89    88   ar
   148    84    83    1
   149    84    86   ar
   150    20    21   ar
   151    20    22   ar
   152    83    80    1
   153    46    47    1
   154    81    80    1
   155   214   213   ar
   156    21    23   ar
   157    80    79    1
   158   124   126    1
   159   124   123    1
   160   123   120    1
   161    88    86   ar
   162    22    25   ar
   163    22    24   ar
   164   101   100    1
   165   101   102    1
   166   100    93   am
   167    25    27   ar
   168    47    49   am
   169    47    48    2
   170    23    24   ar
   171   103   102    2
   172   122   121    2
   173   114   112    1
   174   121   120    1
   175   102   108   am
   176   120   119    1
   177    24    26   ar
   178    93    92    1
   179    93    94    2
   180    92    91    1
   181    92    95    1
   182    27    28   ar
   183    60    61    1
   184   108   109    1
   185   113   112    1
   186   119   117   am
   187   112   109    1
   188    26    28   ar
   189   109   110    1
   190    95    96    1
   191    61    62    1
   192    96    97    1
   193   110   111    2
   194   110   115   am
   195   117   118    2
   196   117   116    1
   197   115   116    1
   198    62    63    2
   199    62    64   am
   200    97    99   am
   201    97    98    2
   202    64    65    1
   203    78    75    1
   204    65    68    1
   205    65    66    1
   206    68    69    1
   207    75    74    1
   208    75    76    1
   209    66    70   am
   210    66    67    2
   211    74    72   am
   212    70    71    1
   213    76    77    2
   214    72    71    1
   215    72    73    2
