@<TRIPOS>MOLECULE
tmp/1hx6B03.pdb
 104 103 0 0 0
SMALL
GASTEIGER

@<TRIPOS>ATOM
      1  N         62.4110   70.8890   38.1690 N.3   251  GLU251     -0.1231
      2  CA        62.6150   71.2020   36.7590 C.3   251  GLU251      0.1699
      3  C         62.7550   69.9030   35.9950 C.2   251  GLU251      0.2592
      4  O         63.1710   68.8850   36.5540 O.2   251  GLU251     -0.2718
      5  CB        63.8900   72.0260   36.5370 C.3   251  GLU251      0.0402
      6  CG        63.7420   73.5150   36.8290 C.3   251  GLU251      0.1161
      7  CD        64.8890   74.3290   36.2300 C.2   251  GLU251      0.3649
      8  OE1       65.0190   74.3470   34.9990 O.co2 251  GLU251     -0.2457
      9  OE2       65.6560   74.9450   36.9850 O.co2 251  GLU251     -0.2457
     10  N         62.4210   69.9360   34.7110 N.am  252  ASN252     -0.1960
     11  CA        62.5350   68.7510   33.8940 C.3   252  ASN252      0.1819
     12  C         63.2790   69.0970   32.6050 C.2   252  ASN252      0.2622
     13  O         63.4200   70.2700   32.2570 O.2   252  ASN252     -0.2715
     14  CB        61.1360   68.1640   33.6120 C.3   252  ASN252      0.1195
     15  CG        60.2520   69.0800   32.7630 C.2   252  ASN252      0.2630
     16  OD1       60.1920   70.2880   32.9710 O.2   252  ASN252     -0.2716
     17  ND2       59.5410   68.4880   31.8070 N.am  252  ASN252     -0.0877
     18  N         63.7960   68.0750   31.9310 N.am  253  SER253     -0.1950
     19  CA        64.5180   68.2770   30.6830 C.3   253  SER253      0.1924
     20  C         64.3770   67.0200   29.8620 C.2   253  SER253      0.2314
     21  O         63.8110   66.0240   30.3300 O.2   253  SER253     -0.2863
     22  CB        66.0000   68.5480   30.9490 C.3   253  SER253      0.2116
     23  OG        66.6060   67.4260   31.5700 O.3   253  SER253     -0.2180
     24  N         73.6680   61.4540   31.7580 N.3   266  VAL266     -0.1231
     25  CA        73.1220   62.7960   31.8690 C.3   266  VAL266      0.1692
     26  C         73.7960   63.4850   33.0500 C.2   266  VAL266      0.2592
     27  O         73.5700   63.1410   34.2150 O.2   266  VAL266     -0.2718
     28  CB        71.6000   62.7720   32.0830 C.3   266  VAL266      0.0266
     29  CG1       71.0600   64.1990   32.1220 C.3   266  VAL266      0.0020
     30  CG2       70.9440   61.9700   30.9710 C.3   266  VAL266      0.0020
     31  N         74.6340   64.4710   32.7460 N.am  267  GLN267     -0.1966
     32  CA        75.3670   65.1760   33.7880 C.3   267  GLN267      0.1733
     33  C         74.5070   66.0560   34.6740 C.2   267  GLN267      0.2616
     34  O         73.5590   66.6910   34.2030 O.2   267  GLN267     -0.2715
     35  CB        76.4480   66.0680   33.1630 C.3   267  GLN267      0.0408
     36  CG        77.4470   65.3480   32.2880 C.3   267  GLN267      0.0908
     37  CD        78.3100   64.3850   33.0720 C.2   267  GLN267      0.2608
     38  OE1       78.6860   64.6600   34.2170 O.2   267  GLN267     -0.2717
     39  NE2       78.6470   63.2560   32.4580 N.am  267  GLN267     -0.0878
     40  N         74.8570   66.0990   35.9570 N.am  268  TYR268     -0.1960
     41  CA        74.1820   66.9670   36.9050 C.3   268  TYR268      0.1771
     42  C         74.9700   68.2780   36.8040 C.2   268  TYR268      0.2619
     43  O         76.1950   68.2510   36.6890 O.2   268  TYR268     -0.2715
     44  CB        74.2890   66.4370   38.3390 C.3   268  TYR268      0.0574
     45  CG        73.3980   65.2460   38.6500 C.ar  268  TYR268     -0.0198
     46  CD1       72.0900   65.4330   39.1020 C.ar  268  TYR268     -0.0009
     47  CD2       73.8550   63.9370   38.4780 C.ar  268  TYR268     -0.0009
     48  CE1       71.2510   64.3380   39.3750 C.ar  268  TYR268      0.0417
     49  CE2       73.0210   62.8280   38.7530 C.ar  268  TYR268      0.0417
     50  CZ        71.7220   63.0480   39.1990 C.ar  268  TYR268      0.1957
     51  OH        70.8950   61.9750   39.4590 O.3   268  TYR268     -0.2866
     52  N         74.2810   69.4140   36.8260 N.am  269  ALA269     -0.1977
     53  CA        74.9640   70.7060   36.7450 C.3   269  ALA269      0.1597
     54  C         75.6030   71.0250   38.0950 C.2   269  ALA269      0.2287
     55  O         75.2620   70.4200   39.1130 O.2   269  ALA269     -0.2864
     56  CB        73.9760   71.8030   36.3640 C.3   269  ALA269      0.0319
     57  N         73.8470   73.2860   41.9850 N.3   272  TYR272     -0.1241
     58  CA        72.5700   72.7560   42.4810 C.3   272  TYR272      0.1605
     59  C         72.7850   71.5550   43.3950 C.2   272  TYR272      0.2264
     60  O         73.6770   70.7400   43.1620 O.2   272  TYR272     -0.2867
     61  CB        71.6610   72.3000   41.3290 C.3   272  TYR272      0.0534
     62  CG        71.1120   73.3880   40.4290 C.ar  272  TYR272     -0.0201
     63  CD1       71.4050   74.7340   40.6520 C.ar  272  TYR272     -0.0009
     64  CD2       70.3270   73.0600   39.3210 C.ar  272  TYR272     -0.0009
     65  CE1       70.9360   75.7290   39.7870 C.ar  272  TYR272      0.0417
     66  CE2       69.8520   74.0460   38.4510 C.ar  272  TYR272      0.0417
     67  CZ        70.1620   75.3750   38.6870 C.ar  272  TYR272      0.1957
     68  OH        69.7130   76.3520   37.8210 O.3   272  TYR272     -0.2866
     69  N         71.0110   68.3980   44.2750 N.3   274  TYR274     -0.1241
     70  CA        69.9170   67.5480   43.8210 C.3   274  TYR274      0.1605
     71  C         69.4290   66.5370   44.8450 C.2   274  TYR274      0.2264
     72  O         70.1510   65.6080   45.2170 O.2   274  TYR274     -0.2867
     73  CB        70.3160   66.8160   42.5380 C.3   274  TYR274      0.0534
     74  CG        70.6670   67.7110   41.3750 C.ar  274  TYR274     -0.0201
     75  CD1       71.9560   68.2320   41.2320 C.ar  274  TYR274     -0.0009
     76  CD2       69.7250   68.0020   40.3880 C.ar  274  TYR274     -0.0009
     77  CE1       72.2970   69.0120   40.1270 C.ar  274  TYR274      0.0417
     78  CE2       70.0540   68.7820   39.2840 C.ar  274  TYR274      0.0417
     79  CZ        71.3450   69.2790   39.1590 C.ar  274  TYR274      0.1957
     80  OH        71.6820   70.0090   38.0490 O.3   274  TYR274     -0.2866
     81  N         64.0640   66.7950   38.0610 N.3   367  TYR367     -0.1241
     82  CA        64.9140   67.0210   39.2220 C.3   367  TYR367      0.1605
     83  C         64.2690   67.8620   40.2940 C.2   367  TYR367      0.2264
     84  O         63.4870   68.7720   40.0170 O.2   367  TYR367     -0.2867
     85  CB        66.2040   67.7430   38.8230 C.3   367  TYR367      0.0534
     86  CG        66.9880   67.0770   37.7300 C.ar  367  TYR367     -0.0201
     87  CD1       67.8510   66.0070   38.0180 C.ar  367  TYR367     -0.0009
     88  CD2       66.8990   67.5240   36.4100 C.ar  367  TYR367     -0.0009
     89  CE1       68.6040   65.4080   37.0150 C.ar  367  TYR367      0.0417
     90  CE2       67.6500   66.9370   35.3990 C.ar  367  TYR367      0.0417
     91  CZ        68.5040   65.8780   35.7130 C.ar  367  TYR367      0.1957
     92  OH        69.2650   65.3080   34.7320 O.3   367  TYR367     -0.2866
     93  N         65.6500   70.1440   43.4780 N.3   369  TYR369     -0.1241
     94  CA        66.9310   70.6540   43.9740 C.3   369  TYR369      0.1605
     95  C         66.8450   71.9450   44.7790 C.2   369  TYR369      0.2264
     96  O         65.8330   72.6330   44.7550 O.2   369  TYR369     -0.2867
     97  CB        67.8890   70.8520   42.7940 C.3   369  TYR369      0.0534
     98  CG        67.4900   71.9740   41.8580 C.ar  369  TYR369     -0.0201
     99  CD1       67.7560   73.3070   42.1810 C.ar  369  TYR369     -0.0009
    100  CD2       66.8200   71.7070   40.6590 C.ar  369  TYR369     -0.0009
    101  CE1       67.3690   74.3460   41.3410 C.ar  369  TYR369      0.0417
    102  CE2       66.4200   72.7460   39.8040 C.ar  369  TYR369      0.0417
    103  CZ        66.7010   74.0580   40.1530 C.ar  369  TYR369      0.1957
    104  OH        66.3380   75.0900   39.3130 O.3   369  TYR369     -0.2866
@<TRIPOS>BOND
     1    20    21    2
     2    20    19    1
     3    19    22    1
     4    19    18    1
     5    22    23    1
     6    30    28    1
     7    24    25    1
     8    17    15   am
     9    25    28    1
    10    25    26    1
    11    18    12   am
    12    28    29    1
    13    13    12    2
    14    36    37    1
    15    36    35    1
    16    39    37   am
    17    12    11    1
    18    31    26   am
    19    31    32    1
    20    15    16    2
    21    15    14    1
    22    26    27    2
    23    37    38    2
    24    35    32    1
    25    14    11    1
    26    32    33    1
    27    11    10    1
    28    34    33    2
    29    33    40   am
    30    10     3   am
    31    92    91    1
    32     8     7   ar
    33    90    91   ar
    34    90    88   ar
    35    91    89   ar
    36    40    41    1
    37     3     4    2
    38     3     2    1
    39     7     6    1
    40     7     9   ar
    41    56    53    1
    42    88    86   ar
    43     5     2    1
    44     5     6    1
    45    43    42    2
    46    53    52    1
    47    53    54    1
    48     2     1    1
    49    42    52   am
    50    42    41    1
    51    41    44    1
    52    89    87   ar
    53    86    87   ar
    54    86    85    1
    55    68    67    1
    56    80    79    1
    57    81    82    1
    58    54    55    2
    59    44    45    1
    60    66    67   ar
    61    66    64   ar
    62    47    45   ar
    63    47    49   ar
    64    45    46   ar
    65    67    65   ar
    66    49    50   ar
    67    85    82    1
    68    46    48   ar
    69    79    78   ar
    70    79    77   ar
    71    50    48   ar
    72    50    51    1
    73    82    83    1
    74    78    76   ar
    75   104   103    1
    76    64    62   ar
    77    65    63   ar
    78   102   103   ar
    79   102   100   ar
    80    84    83    2
    81    77    75   ar
    82   103   101   ar
    83    76    74   ar
    84    62    63   ar
    85    62    61    1
    86   100    98   ar
    87    75    74   ar
    88    61    58    1
    89   101    99   ar
    90    74    73    1
    91    98    99   ar
    92    98    97    1
    93    57    58    1
    94    58    59    1
    95    73    70    1
    96    97    94    1
    97    60    59    2
    98    93    94    1
    99    70    69    1
   100    70    71    1
   101    94    95    1
   102    96    95    2
   103    71    72    2
