@<TRIPOS>MOLECULE
tmp/1hx6A00.pdb
 95 90 0 0 0
SMALL
GASTEIGER

@<TRIPOS>ATOM
      1  N         37.5050   61.6230   88.7930 N.3    93  GLN93      -0.1231
      2  CA        37.5070   62.6150   87.7180 C.3    93  GLN93       0.1698
      3  C         37.3170   61.8540   86.4020 C.2    93  GLN93       0.2592
      4  O         37.9960   60.8610   86.1510 O.2    93  GLN93      -0.2718
      5  CB        38.8360   63.3910   87.6680 C.3    93  GLN93       0.0381
      6  CG        39.0740   64.1940   86.3660 C.3    93  GLN93       0.0905
      7  CD        38.0600   65.3140   86.1150 C.2    93  GLN93       0.2608
      8  OE1       37.3600   65.3300   85.0840 O.2    93  GLN93      -0.2717
      9  NE2       37.9850   66.2630   87.0410 N.am   93  GLN93      -0.0878
     10  N         36.3900   62.3130   85.5730 N.am   94  ARG94      -0.1966
     11  CA        36.1510   61.6590   84.3020 C.3    94  ARG94       0.1729
     12  C         37.1730   62.0470   83.2580 C.2    94  ARG94       0.2616
     13  O         37.6470   63.1920   83.2220 O.2    94  ARG94      -0.2715
     14  CB        34.7800   62.0310   83.7460 C.3    94  ARG94       0.0348
     15  CG        33.6600   61.1910   84.2540 C.3    94  ARG94       0.0492
     16  CD        32.3520   61.5380   83.5600 C.3    94  ARG94       0.2205
     17  NE        32.0330   62.9620   83.6610 N.pl3  94  ARG94      -0.0865
     18  CZ        30.8100   63.4690   83.5460 C.cat  94  ARG94       0.5346
     19  NH1       29.7710   62.6700   83.3310 N.pl3  94  ARG94       0.1354
     20  NH2       30.6260   64.7770   83.6520 N.pl3  94  ARG94       0.1354
     21  N         37.5250   61.0870   82.4090 N.am   95  HIS95      -0.1973
     22  CA        38.4200   61.3930   81.3110 C.3    95  HIS95       0.1656
     23  C         37.5290   61.2550   80.0760 C.2    95  HIS95       0.2291
     24  O         36.6030   62.0570   79.8840 O.2    95  HIS95      -0.2864
     25  CB        39.6230   60.4480   81.3010 C.3    95  HIS95       0.0771
     26  CG        40.5420   60.6430   82.4710 C.ar   95  HIS95       0.0820
     27  ND1       41.9000   60.8480   82.3300 N.ar   95  HIS95      -0.2267
     28  CD2       40.2940   60.6590   83.8040 C.ar   95  HIS95       0.1154
     29  CE1       42.4490   60.9770   83.5260 C.ar   95  HIS95       0.1986
     30  NE2       41.4960   60.8670   84.4380 N.ar   95  HIS95      -0.2212
     31  N         34.5470   60.3880   77.6160 N.3    97  GLU97      -0.1245
     32  CA        33.1050   60.1200   77.6750 C.3    97  GLU97       0.1567
     33  C         32.6450   60.3390   76.2450 C.2    97  GLU97       0.2260
     34  O         32.3870   61.4690   75.8210 O.2    97  GLU97      -0.2867
     35  CB        32.3440   61.0590   78.6300 C.3    97  GLU97       0.0388
     36  CG        30.8080   60.9080   78.4830 C.3    97  GLU97       0.1160
     37  CD        30.0290   61.1160   79.7810 C.2    97  GLU97       0.3649
     38  OE1       30.6500   61.4870   80.7990 O.co2  97  GLU97      -0.2457
     39  OE2       28.7940   60.8980   79.7760 O.co2  97  GLU97      -0.2457
     40  N         44.5780   65.8920   81.7160 N.3   243  LEU243     -0.1245
     41  CA        43.5930   64.9180   81.2450 C.3   243  LEU243      0.1561
     42  C         43.6430   64.8970   79.7240 C.2   243  LEU243      0.2260
     43  O         43.7170   65.9500   79.0910 O.2   243  LEU243     -0.2867
     44  CB        42.1740   65.3160   81.6830 C.3   243  LEU243      0.0270
     45  CG        41.9080   65.5670   83.1720 C.3   243  LEU243      0.0019
     46  CD1       40.4930   66.1250   83.3620 C.3   243  LEU243      0.0001
     47  CD2       42.0830   64.2760   83.9460 C.3   243  LEU243      0.0001
     48  N         41.3000   63.5400   77.0040 N.3   245  ASN245     -0.1240
     49  CA        39.9430   63.0260   76.8460 C.3   245  ASN245      0.1653
     50  C         39.3700   63.1150   75.4510 C.2   245  ASN245      0.2266
     51  O         39.7460   63.9730   74.6630 O.2   245  ASN245     -0.2867
     52  CB        38.9560   63.8230   77.7200 C.3   245  ASN245      0.1155
     53  CG        39.3660   63.9060   79.1770 C.2   245  ASN245      0.2627
     54  OD1       40.1890   63.1420   79.6500 O.2   245  ASN245     -0.2716
     55  ND2       38.7560   64.8380   79.9020 N.am  245  ASN245     -0.0877
     56  N         35.5200   63.4010   73.7520 N.3   247  GLU247     -0.1245
     57  CA        34.1390   63.7170   74.1170 C.3   247  GLU247      0.1567
     58  C         33.3120   63.9850   72.8740 C.2   247  GLU247      0.2260
     59  O         33.8370   64.4130   71.8480 O.2   247  GLU247     -0.2867
     60  CB        34.0720   64.9610   75.0060 C.3   247  GLU247      0.0388
     61  CG        34.3300   64.7320   76.4780 C.3   247  GLU247      0.1160
     62  CD        33.7210   65.8600   77.2950 C.2   247  GLU247      0.3649
     63  OE1       32.4760   65.9190   77.3960 O.co2 247  GLU247     -0.2457
     64  OE2       34.4840   66.7030   77.7980 O.co2 247  GLU247     -0.2457
     65  N         40.2930   74.1500   77.0800 N.3   268  TYR268     -0.1241
     66  CA        40.6960   72.8970   76.4450 C.3   268  TYR268      0.1605
     67  C         41.6300   73.1130   75.2610 C.2   268  TYR268      0.2264
     68  O         41.4620   74.0580   74.4960 O.2   268  TYR268     -0.2867
     69  CB        39.4740   72.1270   75.9380 C.3   268  TYR268      0.0534
     70  CG        38.5280   71.6040   76.9940 C.ar  268  TYR268     -0.0201
     71  CD1       38.7590   71.8170   78.3570 C.ar  268  TYR268     -0.0009
     72  CD2       37.3800   70.9060   76.6220 C.ar  268  TYR268     -0.0009
     73  CE1       37.8620   71.3450   79.3190 C.ar  268  TYR268      0.0417
     74  CE2       36.4850   70.4350   77.5670 C.ar  268  TYR268      0.0417
     75  CZ        36.7280   70.6560   78.9140 C.ar  268  TYR268      0.1957
     76  OH        35.8340   70.1800   79.8440 O.3   268  TYR268     -0.2866
     77  N         41.0480   66.2130   73.2820 N.3   365  TYR365     -0.1241
     78  CA        41.6580   67.4090   73.8750 C.3   365  TYR365      0.1605
     79  C         42.4450   67.1300   75.1400 C.2   365  TYR365      0.2264
     80  O         42.3410   66.0480   75.7170 O.2   365  TYR365     -0.2867
     81  CB        40.5750   68.4670   74.1750 C.3   365  TYR365      0.0534
     82  CG        39.5880   68.0690   75.2720 C.ar  365  TYR365     -0.0201
     83  CD1       39.9250   68.1820   76.6270 C.ar  365  TYR365     -0.0009
     84  CD2       38.3380   67.5420   74.9500 C.ar  365  TYR365     -0.0009
     85  CE1       39.0410   67.7730   77.6350 C.ar  365  TYR365      0.0417
     86  CE2       37.4430   67.1280   75.9550 C.ar  365  TYR365      0.0417
     87  CZ        37.8030   67.2450   77.2820 C.ar  365  TYR365      0.1957
     88  OH        36.9300   66.8120   78.2500 O.3   365  TYR365     -0.2866
     89  N         43.4820   68.9900   78.9450 N.3   367  THR367     -0.1218
     90  CA        43.0490   70.0340   79.8620 C.3   367  THR367      0.1862
     91  C         43.5920   69.7160   81.2490 C.2   367  THR367      0.2287
     92  O         43.7990   68.5540   81.6000 O.2   367  THR367     -0.2866
     93  CB        41.5180   70.1860   79.9090 C.3   367  THR367      0.1770
     94  OG1       41.1960   71.4140   80.5760 O.3   367  THR367     -0.2211
     95  CG2       40.8730   69.0300   80.6480 C.3   367  THR367      0.0375
@<TRIPOS>BOND
     1    59    58    2
     2    58    57    1
     3    77    78    1
     4    56    57    1
     5    78    81    1
     6    78    79    1
     7    57    60    1
     8    81    82    1
     9    68    67    2
    10    51    50    2
    11    84    82   ar
    12    84    86   ar
    13    60    61    1
    14    79    80    2
    15    67    66    1
    16    82    83   ar
    17    50    49    1
    18    34    33    2
    19    69    66    1
    20    69    70    1
    21    86    87   ar
    22    33    32    1
    23    66    65    1
    24    61    62    1
    25    72    70   ar
    26    72    74   ar
    27    83    85   ar
    28    49    48    1
    29    49    52    1
    30    70    71   ar
    31    87    85   ar
    32    87    88    1
    33    62    63   ar
    34    62    64   ar
    35    74    75   ar
    36    31    32    1
    37    32    35    1
    38    52    53    1
    39    71    73   ar
    40    36    35    1
    41    36    37    1
    42    75    73   ar
    43    75    76    1
    44    89    90    1
    45    43    42    2
    46    53    54    2
    47    53    55   am
    48    42    41    1
    49    39    37   ar
    50    37    38   ar
    51    90    93    1
    52    90    91    1
    53    24    23    2
    54    93    94    1
    55    93    95    1
    56    23    22    1
    57    41    44    1
    58    41    40    1
    59    91    92    2
    60    25    22    1
    61    25    26    1
    62    22    21    1
    63    44    45    1
    64    27    26   ar
    65    27    29   ar
    66    21    12   am
    67    26    28   ar
    68    45    46    1
    69    45    47    1
    70    13    12    2
    71    12    11    1
    72    19    18    1
    73    29    30   ar
    74    18    20    1
    75    18    17    2
    76    16    17    1
    77    16    15    1
    78    14    15    1
    79    14    11    1
    80    28    30   ar
    81    11    10    1
    82     8     7    2
    83    10     3   am
    84     7     6    1
    85     7     9   am
    86     4     3    2
    87     6     5    1
    88     3     2    1
    89     5     2    1
    90     2     1    1
