@<TRIPOS>MOLECULE
tmp/1hxdA00.pdb
 149 143 0 0 0
SMALL
GASTEIGER

@<TRIPOS>ATOM
      1  N         59.0190   16.4790   47.9290 N.3    86  SER86      -0.1202
      2  CA        59.1910   15.0650   48.0440 C.3    86  SER86       0.2020
      3  C         60.1430   14.5350   47.0120 C.2    86  SER86       0.2619
      4  O         60.0150   14.8220   45.8230 O.2    86  SER86      -0.2717
      5  CB        57.8730   14.3170   47.9580 C.3    86  SER86       0.2103
      6  OG        58.0580   13.0970   47.2320 O.3    86  SER86      -0.2182
      7  N         61.0450   13.6750   47.4980 N.am   87  THR87      -0.1938
      8  CA        62.0610   12.9820   46.6870 C.3    87  THR87       0.2028
      9  C         61.5000   12.1680   45.5080 C.2    87  THR87       0.2642
     10  O         62.1760   11.9190   44.5380 O.2    87  THR87      -0.2714
     11  CB        62.9980   12.1450   47.6060 C.3    87  THR87       0.1808
     12  OG1       62.3620   11.1040   48.3290 O.3    87  THR87      -0.2208
     13  CG2       63.5230   13.1590   48.5550 C.3    87  THR87       0.0379
     14  N         60.2650   11.7370   45.5980 N.am   88  ASN88      -0.1971
     15  CA        59.6730   10.9480   44.5500 C.3    88  ASN88       0.1688
     16  C         59.1950   11.8990   43.4770 C.2    88  ASN88       0.2292
     17  O         59.4120   11.7590   42.2570 O.2    88  ASN88      -0.2864
     18  CB        58.6020    9.9650   45.1770 C.3    88  ASN88       0.1181
     19  CG        59.1500    8.5550   45.5250 C.2    88  ASN88       0.2629
     20  OD1       60.3550    8.4010   45.8290 O.2    88  ASN88      -0.2716
     21  ND2       58.2870    7.5080   45.4550 N.am   88  ASN88      -0.0877
     22  N         61.5040   17.1510   53.8050 N.3   109  GLN109     -0.1196
     23  CA        60.4780   17.0920   52.7500 C.3   109  GLN109      0.1782
     24  C         59.1750   17.7930   53.2120 C.2   109  GLN109      0.2306
     25  O         58.5600   17.4370   54.2380 O.2   109  GLN109     -0.2863
     26  CB        60.1030   15.6100   52.4330 C.2   109  GLN109      0.0051
     27  CG        60.9110   14.7890   51.3650 C.2   109  GLN109      0.0584
     28  CD        60.6270   13.2560   51.2640 C.2   109  GLN109      0.2840
     29  OE1       60.8610   12.6450   50.2250 O.2   109  GLN109     -0.2667
     30  NE2       60.0710   12.6110   52.2920 N.am  109  GLN109     -0.0837
     31  N         55.2160   11.7160   51.4820 N.3   113  ARG113     -0.1231
     32  CA        54.0540   10.8730   51.2790 C.3   113  ARG113      0.1694
     33  C         54.3060    9.3810   51.2840 C.2   113  ARG113      0.2593
     34  O         55.3120    8.8880   50.7720 O.2   113  ARG113     -0.2718
     35  CB        53.3840   11.1510   49.9210 C.3   113  ARG113      0.0321
     36  CG        54.2220   10.6610   48.7470 C.3   113  ARG113      0.0489
     37  CD        53.4110   10.2070   47.5490 C.3   113  ARG113      0.2205
     38  NE        54.1280   10.4600   46.3060 N.pl3 113  ARG113     -0.0865
     39  CZ        54.1520   11.6480   45.6930 C.cat 113  ARG113      0.5346
     40  NH1       53.5120   12.7230   46.1550 N.pl3 113  ARG113      0.1354
     41  NH2       54.8220   11.7690   44.5580 N.pl3 113  ARG113      0.1354
     42  N         53.3220    8.6740   51.7730 N.am  114  GLY114     -0.1942
     43  CA        53.4110    7.2610   51.8060 C.3   114  GLY114      0.2014
     44  C         52.4070    6.6790   50.8400 C.2   114  GLY114      0.2638
     45  O         51.8490    7.3430   50.0050 O.2   114  GLY114     -0.2714
     46  N         52.2390    5.3870   51.0050 N.am  115  ARG115     -0.1977
     47  CA        51.3490    4.5240   50.3190 C.3   115  ARG115      0.1597
     48  C         49.9790    4.9170   50.7800 C.2   115  ARG115      0.2287
     49  O         49.8740    5.5830   51.7840 O.2   115  ARG115     -0.2864
     50  CB        51.8150    3.1410   50.6910 C.3   115  ARG115      0.0334
     51  CG        52.2980    2.3660   49.4900 C.3   115  ARG115      0.0492
     52  CD        53.4530    1.4870   49.8780 C.3   115  ARG115      0.2205
     53  NE        53.0670    0.2630   50.5720 N.pl3 115  ARG115     -0.0865
     54  CZ        53.5840   -0.1200   51.7520 C.cat 115  ARG115      0.5346
     55  NH1       54.4720    0.6270   52.4300 N.pl3 115  ARG115      0.1354
     56  NH2       53.1880   -1.2840   52.2830 N.pl3 115  ARG115      0.1354
     57  N         49.0670    8.5650   52.5880 N.3   118  ARG118     -0.1245
     58  CA        49.4590    8.8370   53.9610 C.3   118  ARG118      0.1563
     59  C         50.6140    9.8160   53.9960 C.2   118  ARG118      0.2260
     60  O         51.4700    9.6910   53.1470 O.2   118  ARG118     -0.2867
     61  CB        49.8910    7.5860   54.7100 C.3   118  ARG118      0.0307
     62  CG        48.7470    6.6810   55.1570 C.3   118  ARG118      0.0489
     63  CD        49.0180    5.1910   54.8670 C.3   118  ARG118      0.2205
     64  NE        50.0400    4.5270   55.7020 N.pl3 118  ARG118     -0.0865
     65  CZ        50.0300    3.2130   55.9390 C.cat 118  ARG118      0.5346
     66  NH1       49.0860    2.4140   55.4390 N.pl3 118  ARG118      0.1354
     67  NH2       50.9860    2.6940   56.7090 N.pl3 118  ARG118      0.1354
     68  N         54.1550   11.3610   55.0770 N.3   120  TRP120     -0.1241
     69  CA        55.3400   10.7340   55.5350 C.3   120  TRP120      0.1605
     70  C         56.0520   11.3150   56.7350 C.2   120  TRP120      0.2264
     71  O         56.5300   10.5320   57.5670 O.2   120  TRP120     -0.2867
     72  CB        56.3970   10.5460   54.5030 C.3   120  TRP120      0.0550
     73  CG        57.4200    9.6500   55.0870 C.ar  120  TRP120      0.0003
     74  CD1       58.7020   10.0010   55.3350 C.ar  120  TRP120      0.0946
     75  CD2       57.2360    8.3580   55.7000 C.ar  120  TRP120      0.0152
     76  NE1       59.3820    8.9710   55.9390 N.ar  120  TRP120     -0.2442
     77  CE2       58.5110    7.9460   56.2020 C.ar  120  TRP120      0.0810
     78  CE3       56.1400    7.4480   55.8210 C.ar  120  TRP120      0.0012
     79  CZ2       58.7430    6.6470   56.7030 C.ar  120  TRP120      0.0191
     80  CZ3       56.3650    6.1710   56.3610 C.ar  120  TRP120      0.0001
     81  CH2       57.6530    5.7860   56.8200 C.ar  120  TRP120      0.0015
     82  N         65.6170   10.2180   53.7170 N.3   129  TYR129     -0.1227
     83  CA        64.5860   10.4620   52.6950 C.3   129  TYR129      0.1736
     84  C         65.2530   10.3160   51.3220 C.2   129  TYR129      0.2595
     85  O         66.0860   11.1370   50.9030 O.2   129  TYR129     -0.2718
     86  CB        63.8610   11.7980   52.9110 C.3   129  TYR129      0.0548
     87  CG        63.7410   12.2700   54.3680 C.ar  129  TYR129     -0.0200
     88  CD1       63.0870   11.5010   55.3270 C.ar  129  TYR129     -0.0009
     89  CD2       64.2550   13.5080   54.7740 C.ar  129  TYR129     -0.0009
     90  CE1       62.9770   11.9530   56.6420 C.ar  129  TYR129      0.0417
     91  CE2       64.1720   13.9750   56.0850 C.ar  129  TYR129      0.0417
     92  CZ        63.5400   13.1670   57.0250 C.ar  129  TYR129      0.1957
     93  OH        63.4150   13.5730   58.3210 O.3   129  TYR129     -0.2866
     94  N         64.9720    9.1830   50.6470 N.am  130  LEU130     -0.1966
     95  CA        65.6560    8.8930   49.3840 C.3   130  LEU130      0.1728
     96  C         64.7940    8.2440   48.2860 C.2   130  LEU130      0.2616
     97  O         63.7710    7.5740   48.4880 O.2   130  LEU130     -0.2715
     98  CB        66.9500    8.1200   49.6990 C.3   130  LEU130      0.0311
     99  CG        67.2520    6.9400   48.7810 C.3   130  LEU130      0.0022
    100  CD1       68.1110    7.4240   47.6340 C.3   130  LEU130      0.0001
    101  CD2       68.0350    5.8830   49.5150 C.3   130  LEU130      0.0001
    102  N         65.2000    8.5490   47.0690 N.am  131  SER131     -0.1950
    103  CA        64.5290    8.0870   45.8920 C.3   131  SER131      0.1924
    104  C         65.5400    7.7890   44.7770 C.2   131  SER131      0.2314
    105  O         66.6060    8.4500   44.6720 O.2   131  SER131     -0.2863
    106  CB        63.4780    9.0950   45.4160 C.3   131  SER131      0.2116
    107  OG        62.7940    9.5710   46.5420 O.3   131  SER131     -0.2180
    108  N         57.5780   -1.0760   62.4900 N.3   180  LYS180     -0.1245
    109  CA        57.9970   -0.6250   61.1790 C.3   180  LYS180      0.1561
    110  C         59.1340    0.3750   61.3270 C.2   180  LYS180      0.2260
    111  O         58.9420    1.3480   62.0560 O.2   180  LYS180     -0.2867
    112  CB        56.7650   -0.1420   60.3980 C.3   180  LYS180      0.0271
    113  CG        56.9930    0.9070   59.3110 C.3   180  LYS180      0.0035
    114  CD        55.7130    1.1660   58.5250 C.3   180  LYS180      0.0206
    115  CE        55.8680    2.1260   57.3400 C.3   180  LYS180      0.1093
    116  NZ        54.7240    2.0600   56.4180 N.3   180  LYS180     -0.1314
    117  N         60.0280    2.7760   55.3400 N.3   183  GLY183     -0.1210
    118  CA        58.8330    2.6780   54.4920 C.3   183  GLY183      0.1956
    119  C         59.2200    2.8130   53.0840 C.2   183  GLY183      0.2612
    120  O         60.0170    3.6480   52.7620 O.2   183  GLY183     -0.2717
    121  N         58.6140    2.0420   52.2340 N.am  184  ILE184     -0.1965
    122  CA        58.9960    2.0780   50.8560 C.3   184  ILE184      0.1727
    123  C         57.8930    2.3370   49.9420 C.2   184  ILE184      0.2616
    124  O         56.9450    1.5650   49.8950 O.2   184  ILE184     -0.2715
    125  CB        59.5610    0.7460   50.3660 C.3   184  ILE184      0.0290
    126  CG1       60.7950    0.3910   51.2010 C.3   184  ILE184      0.0022
    127  CG2       59.8800    0.8070   48.8560 C.3   184  ILE184      0.0023
    128  CD1       61.1320   -1.1110   51.1640 C.3   184  ILE184      0.0001
    129  N         58.1230    3.2980   49.0790 N.am  185  LEU185     -0.1977
    130  CA        57.1080    3.6700   48.1120 C.3   185  LEU185      0.1596
    131  C         57.6600    3.6040   46.7060 C.2   185  LEU185      0.2287
    132  O         58.4630    4.4370   46.2980 O.2   185  LEU185     -0.2864
    133  CB        56.4720    5.0250   48.5650 C.3   185  LEU185      0.0297
    134  CG        55.5700    5.8070   47.6220 C.3   185  LEU185      0.0022
    135  CD1       54.2550    5.0930   47.3530 C.3   185  LEU185      0.0001
    136  CD2       55.2160    7.1210   48.2840 C.3   185  LEU185      0.0001
    137  N         61.0590    5.2120   46.4150 N.3   201  GLY201     -0.1210
    138  CA        61.2280    6.0060   47.6100 C.3   201  GLY201      0.1956
    139  C         61.3250    5.1290   48.8340 C.2   201  GLY201      0.2612
    140  O         60.5990    4.1590   49.0760 O.2   201  GLY201     -0.2717
    141  N         62.2920    5.4870   49.5820 N.am  202  ALA202     -0.1965
    142  CA        62.5670    4.8380   50.8090 C.3   202  ALA202      0.1728
    143  C         62.7100    5.8640   51.9290 C.2   202  ALA202      0.2616
    144  O         63.4140    6.9000   51.8130 O.2   202  ALA202     -0.2715
    145  CB        63.8150    4.0090   50.6550 C.3   202  ALA202      0.0334
    146  N         62.0040    5.5600   53.0050 N.am  203  GLY203     -0.1955
    147  CA        62.0080    6.3560   54.2120 C.3   203  GLY203      0.1869
    148  C         62.5240    5.5090   55.3700 C.2   203  GLY203      0.2309
    149  O         62.0210    4.3990   55.5830 O.2   203  GLY203     -0.2863
@<TRIPOS>BOND
     1    17    16    2
     2    16    15    1
     3    10     9    2
     4    15    18    1
     5    15    14    1
     6    41    39    1
     7   105   104    2
     8   104   103    1
     9    18    19    1
    10   106   103    1
    11   106   107    1
    12    21    19   am
    13     9    14   am
    14     9     8    1
    15    19    20    2
    16    39    40    1
    17    39    38    2
    18     4     3    2
    19   103   102    1
    20   132   131    2
    21    38    37    1
    22   137   138    1
    23     8     7    1
    24     8    11    1
    25   131   130    1
    26     3     7   am
    27     3     2    1
    28   102    96   am
    29     6     5    1
    30   135   134    1
    31    37    36    1
    32    11    12    1
    33    11    13    1
    34   138   139    1
    35   134   136    1
    36   134   133    1
    37   100    99    1
    38     1     2    1
    39     5     2    1
    40   130   133    1
    41   130   129    1
    42    96    97    2
    43    96    95    1
    44    36    35    1
    45    99   101    1
    46    99    98    1
    47   139   140    2
    48   139   141   am
    49   127   125    1
    50   129   123   am
    51    95    98    1
    52    95    94    1
    53    51    52    1
    54    51    50    1
    55   141   142    1
    56    52    53    1
    57   124   123    2
    58    35    32    1
    59   123   122    1
    60    45    44    2
    61    29    28    2
    62    47    50    1
    63    47    48    1
    64    47    46    1
    65   125   122    1
    66   125   126    1
    67    53    54    2
    68    94    84   am
    69   145   142    1
    70    34    33    2
    71    48    49    2
    72   142   143    1
    73    44    46   am
    74    44    43    1
    75   122   121    1
    76    85    84    2
    77   128   126    1
    78    28    27    1
    79    28    30   am
    80    32    33    1
    81    32    31    1
    82    33    42   am
    83    84    83    1
    84    27    26    2
    85    54    56    1
    86    54    55    1
    87    42    43    1
    88   144   143    2
    89   143   146   am
    90   121   119   am
    91    26    23    1
    92    57    58    1
    93    83    86    1
    94    83    82    1
    95    23    24    1
    96    23    22    1
    97   120   119    2
    98    86    87    1
    99   146   147    1
   100   119   118    1
   101    60    59    2
   102    24    25    2
   103    58    59    1
   104    58    61    1
   105   147   148    1
   106    87    89   ar
   107    87    88   ar
   108   118   117    1
   109    72    73    1
   110    72    69    1
   111    61    62    1
   112    89    91   ar
   113    63    62    1
   114    63    64    1
   115    68    69    1
   116    73    74   ar
   117    73    75   ar
   118    88    90   ar
   119    74    76   ar
   120   148   149    2
   121    66    65    1
   122    69    70    1
   123    75    78   ar
   124    75    77   ar
   125    64    65    2
   126    78    80   ar
   127    65    67    1
   128    76    77   ar
   129    91    92   ar
   130    77    79   ar
   131    80    81   ar
   132   116   115    1
   133    90    92   ar
   134    79    81   ar
   135    70    71    2
   136    92    93    1
   137   115   114    1
   138   114   113    1
   139   113   112    1
   140   112   109    1
   141   109   110    1
   142   109   108    1
   143   110   111    2
