@<TRIPOS>MOLECULE
tmp/1hxpB00.pdb
 132 128 0 0 0
SMALL
GASTEIGER

@<TRIPOS>ATOM
      1  N         12.4290   75.6360   58.8820 N.3    36  PHE36      -0.1227
      2  CA        13.2980   74.9650   59.8140 C.3    36  PHE36       0.1736
      3  C         14.2100   75.8870   60.6180 C.2    36  PHE36       0.2595
      4  O         14.8430   75.3940   61.5560 O.2    36  PHE36      -0.2718
      5  CB        14.1910   73.9660   59.0490 C.3    36  PHE36       0.0547
      6  CG        13.3970   72.8900   58.3620 C.ar   36  PHE36      -0.0202
      7  CD1       12.5310   72.0890   59.0970 C.ar   36  PHE36      -0.0042
      8  CD2       13.5180   72.7070   56.9910 C.ar   36  PHE36      -0.0042
      9  CE1       11.8030   71.1080   58.4820 C.ar   36  PHE36      -0.0003
     10  CE2       12.7840   71.7180   56.3520 C.ar   36  PHE36      -0.0003
     11  CZ        11.9400   70.9360   57.1100 C.ar   36  PHE36      -0.0000
     12  N         14.2700   77.1690   60.2610 N.am   37  LEU37      -0.1980
     13  CA        15.1230   78.0870   60.9770 C.3    37  LEU37       0.1596
     14  C         14.3850   79.0260   61.8570 C.2    37  LEU37       0.2287
     15  O         15.0190   79.8020   62.5840 O.2    37  LEU37      -0.2864
     16  CB        16.0250   78.9050   60.0690 C.3    37  LEU37       0.0297
     17  CG        16.7470   77.9560   59.1150 C.3    37  LEU37       0.0022
     18  CD1       17.5180   78.7390   58.1520 C.3    37  LEU37       0.0001
     19  CD2       17.6190   76.9640   59.7470 C.3    37  LEU37       0.0001
     20  N         13.1770   70.9880   63.5860 N.3    43  ARG43      -0.1231
     21  CA        14.0220   70.7670   62.4210 C.3    43  ARG43       0.1694
     22  C         13.8160   69.3390   61.9120 C.2    43  ARG43       0.2592
     23  O         13.2130   68.5070   62.6110 O.2    43  ARG43      -0.2718
     24  CB        15.5080   70.9770   62.7590 C.3    43  ARG43       0.0321
     25  CG        15.8340   72.3830   63.2050 C.3    43  ARG43       0.0489
     26  CD        17.2570   72.7360   63.0180 C.3    43  ARG43       0.2205
     27  NE        18.2060   71.8580   63.7030 N.pl3  43  ARG43      -0.0865
     28  CZ        18.5200   71.9520   64.9900 C.cat  43  ARG43       0.5346
     29  NH1       17.9630   72.8790   65.7760 N.pl3  43  ARG43       0.1354
     30  NH2       19.4100   71.0980   65.4660 N.pl3  43  ARG43       0.1354
     31  N         14.3380   69.1070   60.7060 N.am   44  VAL44      -0.1966
     32  CA        14.2850   67.8270   60.0000 C.3    44  VAL44       0.1727
     33  C         14.4720   66.7070   61.0320 C.2    44  VAL44       0.2616
     34  O         13.6960   65.7610   61.2220 O.2    44  VAL44      -0.2715
     35  CB        15.5190   67.7320   59.0500 C.3    44  VAL44       0.0290
     36  CG1       16.0230   66.3060   58.9600 C.3    44  VAL44       0.0023
     37  CG2       15.3680   68.3890   57.7120 C.3    44  VAL44       0.0023
     38  N         15.5770   66.8730   61.7370 N.am   45  THR45      -0.1951
     39  CA        15.9970   65.9530   62.7560 C.3    45  THR45       0.1897
     40  C         15.0800   65.8110   63.9260 C.2    45  THR45       0.2313
     41  O         15.3690   65.0070   64.8220 O.2    45  THR45      -0.2863
     42  CB        17.2620   66.5270   63.3190 C.3    45  THR45       0.1794
     43  OG1       17.7910   67.4100   62.3370 O.3    45  THR45      -0.2208
     44  CG2       18.2260   65.4150   63.6230 C.3    45  THR45       0.0378
     45  N         23.4240   76.8010   65.6240 N.3    58  PHE58      -0.1241
     46  CA        23.3010   75.3650   65.8570 C.3    58  PHE58       0.1605
     47  C         24.1980   74.6090   64.9070 C.2    58  PHE58       0.2264
     48  O         24.5540   75.1050   63.8370 O.2    58  PHE58      -0.2867
     49  CB        21.8780   74.8680   65.7650 C.3    58  PHE58       0.0534
     50  CG        21.2180   75.0010   64.4140 C.ar   58  PHE58      -0.0203
     51  CD1       20.5880   76.1720   64.0330 C.ar   58  PHE58      -0.0042
     52  CD2       21.2430   73.9370   63.5170 C.ar   58  PHE58      -0.0042
     53  CE1       19.9500   76.2910   62.7950 C.ar   58  PHE58      -0.0003
     54  CE2       20.6360   74.0180   62.2740 C.ar   58  PHE58      -0.0003
     55  CZ        19.9810   75.2040   61.9250 C.ar   58  PHE58      -0.0000
     56  N         25.2310   72.2200   62.0930 N.3    60  ASN60      -0.1225
     57  CA        24.5490   71.8130   60.8840 C.3    60  ASN60       0.1785
     58  C         24.2180   70.3230   60.9360 C.2    60  ASN60       0.2597
     59  O         25.0940   69.5140   61.1320 O.2    60  ASN60      -0.2718
     60  CB        25.4460   72.0570   59.6650 C.3    60  ASN60       0.1169
     61  CG        24.6370   72.0350   58.3770 C.2    60  ASN60       0.2627
     62  OD1       23.9540   71.0740   58.0630 O.2    60  ASN60      -0.2716
     63  ND2       24.6720   73.1220   57.6470 N.am   60  ASN60      -0.0877
     64  N         22.9550   69.9990   60.7220 N.am   61  ASP61      -0.1960
     65  CA        22.4760   68.6170   60.7380 C.3    61  ASP61       0.1840
     66  C         23.0750   67.7550   59.6220 C.2    61  ASP61       0.2622
     67  O         23.0850   66.5390   59.7060 O.2    61  ASP61      -0.2715
     68  CB        20.9350   68.5540   60.8510 C.3    61  ASP61       0.1450
     69  CG        20.3790   69.2820   62.1170 C.2    61  ASP61       0.3671
     70  OD1       20.8460   69.0310   63.2490 O.co2  61  ASP61      -0.2456
     71  OD2       19.4640   70.1330   62.0410 O.co2  61  ASP61      -0.2456
     72  N         23.5960   68.3680   58.5670 N.am   62  PHE62      -0.1974
     73  CA        24.1980   67.5860   57.4630 C.3    62  PHE62       0.1639
     74  C         25.6140   68.0650   57.2030 C.2    62  PHE62       0.2290
     75  O         26.0530   68.2540   56.0800 O.2    62  PHE62      -0.2864
     76  CB        23.3590   67.7760   56.1740 C.3    62  PHE62       0.0560
     77  CG        21.9030   67.7560   56.4560 C.ar   62  PHE62      -0.0200
     78  CD1       21.3140   66.5580   56.8950 C.ar   62  PHE62      -0.0042
     79  CD2       21.1540   68.8970   56.4090 C.ar   62  PHE62      -0.0042
     80  CE1       19.9800   66.4910   57.1080 C.ar   62  PHE62      -0.0003
     81  CE2       19.8220   68.8200   56.6420 C.ar   62  PHE62      -0.0003
     82  CZ        19.2480   67.6570   57.0700 C.ar   62  PHE62      -0.0000
     83  N         25.1790   76.6950   61.6070 N.3    91  VAL91      -0.1245
     84  CA        24.2950   77.5950   60.8960 C.3    91  VAL91       0.1561
     85  C         24.0160   78.7450   61.8360 C.2    91  VAL91       0.2260
     86  O         23.7780   78.5170   63.0040 O.2    91  VAL91      -0.2867
     87  CB        22.9600   76.9060   60.6280 C.3    91  VAL91       0.0252
     88  CG1       21.9760   77.9460   60.0610 C.3    91  VAL91       0.0019
     89  CG2       23.1110   75.6670   59.7300 C.3    91  VAL91       0.0019
     90  N         21.2750   79.4350   44.9100 N.3   142  GLY142     -0.1210
     91  CA        20.7030   78.1480   45.2720 C.3   142  GLY142      0.1956
     92  C         20.0030   78.0720   46.6220 C.2   142  GLY142      0.2612
     93  O         19.8080   76.9730   47.1450 O.2   142  GLY142     -0.2717
     94  N         19.6110   79.2160   47.1810 N.am  143  CYS143     -0.1956
     95  CA        18.9310   79.2890   48.4790 C.3   143  CYS143      0.1843
     96  C         17.4120   79.1570   48.4050 C.2   143  CYS143      0.2626
     97  O         16.7020   80.0430   47.9010 O.2   143  CYS143     -0.2714
     98  CB        19.2250   80.5810   49.2780 C.3   143  CYS143      0.0997
     99  SG        21.0020   80.7200   49.5540 S.3   143  CYS143     -0.0797
    100  N         16.9260   78.0380   48.9360 N.am  144  SER144     -0.1936
    101  CA        15.4890   77.7550   48.9440 C.3   144  SER144      0.2055
    102  C         14.7690   78.4560   50.1040 C.2   144  SER144      0.2643
    103  O         13.6280   78.8930   50.0210 O.2   144  SER144     -0.2714
    104  CB        15.2230   76.2360   49.0360 C.3   144  SER144      0.2130
    105  OG        15.6270   75.6280   50.2620 O.3   144  SER144     -0.2179
    106  N         15.4750   78.5190   51.2240 N.am  145  ASN145     -0.1971
    107  CA        14.9220   79.1380   52.4000 C.3   145  ASN145      0.1688
    108  C         15.4060   80.5790   52.4740 C.2   145  ASN145      0.2292
    109  O         16.5980   80.8520   52.5770 O.2   145  ASN145     -0.2864
    110  CB        15.2830   78.3090   53.6420 C.3   145  ASN145      0.1181
    111  CG        14.6040   78.7750   54.9190 C.2   145  ASN145      0.2629
    112  OD1       13.9850   79.8220   54.9940 O.2   145  ASN145     -0.2716
    113  ND2       14.7490   78.0190   55.9630 N.am  145  ASN145     -0.0877
    114  N         20.1540   83.8550   57.0900 N.3   149  HIS149     -0.1241
    115  CA        21.1210   83.1770   57.8980 C.3   149  HIS149      0.1621
    116  C         22.4050   83.0350   57.1560 C.2   149  HIS149      0.2264
    117  O         22.5380   83.2320   55.9560 O.2   149  HIS149     -0.2867
    118  CB        20.5650   81.7840   58.1680 C.3   149  HIS149      0.0745
    119  CG        20.4690   80.9390   56.9460 C.ar  149  HIS149      0.0817
    120  ND1       19.4270   81.0240   56.0480 N.ar  149  HIS149     -0.2268
    121  CD2       21.3160   79.9910   56.4800 C.ar  149  HIS149      0.1154
    122  CE1       19.6550   80.1390   55.0770 C.ar  149  HIS149      0.1986
    123  NE2       20.7760   79.5110   55.3150 N.ar  149  HIS149     -0.2212
    124  N         26.4700   80.8780   57.6340 N.3   151  GLN151     -0.1245
    125  CA        27.0210   79.6260   58.1430 C.3   151  GLN151      0.1566
    126  C         28.4230   79.8630   58.6130 C.2   151  GLN151      0.2260
    127  O         29.0220   80.8730   58.2390 O.2   151  GLN151     -0.2867
    128  CB        27.2180   78.6080   57.0240 C.3   151  GLN151      0.0367
    129  CG        25.8610   78.0310   56.6300 C.3   151  GLN151      0.0905
    130  CD        26.0990   77.0130   55.5510 C.2   151  GLN151      0.2608
    131  OE1       26.6800   75.9710   55.7910 O.2   151  GLN151     -0.2717
    132  NE2       25.7190   77.3430   54.3390 N.am  151  GLN151     -0.0878
@<TRIPOS>BOND
     1    90    91    1
     2    91    92    1
     3    92    93    2
     4    92    94   am
     5    94    95    1
     6    97    96    2
     7    96    95    1
     8    96   100   am
     9    95    98    1
    10   100   101    1
    11   101   104    1
    12   101   102    1
    13   104   105    1
    14    98    99    1
    15   103   102    2
    16   102   106   am
    17   106   107    1
    18   107   108    1
    19   107   110    1
    20   108   109    2
    21   110   111    1
    22   132   130   am
    23   111   112    2
    24   111   113   am
    25   122   123   ar
    26   122   120   ar
    27   123   121   ar
    28   130   131    2
    29   130   129    1
    30   117   116    2
    31   120   119   ar
    32    75    74    2
    33    76    77    1
    34    76    73    1
    35    10     8   ar
    36    10    11   ar
    37    79    77   ar
    38    79    81   ar
    39    77    78   ar
    40   121   119   ar
    41   129   128    1
    42    81    82   ar
    43    78    80   ar
    44   119   118    1
    45     8     6   ar
    46   128   125    1
    47    82    80   ar
    48   114   115    1
    49    11     9   ar
    50   116   115    1
    51    74    73    1
    52    73    72    1
    53   124   125    1
    54    63    61   am
    55    37    35    1
    56   115   118    1
    57    62    61    2
    58   125   126    1
    59    18    17    1
    60   127   126    2
    61     6     5    1
    62     6     7   ar
    63    61    60    1
    64     9     7   ar
    65    72    66   am
    66     1     2    1
    67    36    35    1
    68     5     2    1
    69    35    32    1
    70    17    19    1
    71    17    16    1
    72    66    67    2
    73    66    65    1
    74    60    57    1
    75    89    87    1
    76     2     3    1
    77    32    31    1
    78    32    33    1
    79    88    87    1
    80    16    13    1
    81    12     3   am
    82    12    13    1
    83     3     4    2
    84    87    84    1
    85    31    22   am
    86    64    65    1
    87    64    58   am
    88    65    68    1
    89    68    69    1
    90    57    58    1
    91    57    56    1
    92    84    83    1
    93    84    85    1
    94    58    59    2
    95    13    14    1
    96    33    34    2
    97    33    38   am
    98    38    39    1
    99    85    86    2
   100    14    15    2
   101    22    21    1
   102    22    23    2
   103    55    54   ar
   104    55    53   ar
   105    71    69   ar
   106    69    70   ar
   107    54    52   ar
   108    43    42    1
   109    21    24    1
   110    21    20    1
   111    39    42    1
   112    39    40    1
   113    24    25    1
   114    53    51   ar
   115    26    25    1
   116    26    27    1
   117    42    44    1
   118    52    50   ar
   119    27    28    2
   120    48    47    2
   121    40    41    2
   122    51    50   ar
   123    50    49    1
   124    47    46    1
   125    28    30    1
   126    28    29    1
   127    45    46    1
   128    49    46    1
