@<TRIPOS>MOLECULE
tmp/1hxqB00.pdb
 133 129 0 0 0
SMALL
GASTEIGER

@<TRIPOS>ATOM
      1  N         12.0140   74.8630   58.6170 N.3    39  PHE39      -0.1227
      2  CA        12.9320   74.1760   59.5380 C.3    39  PHE39       0.1736
      3  C         13.8700   75.0480   60.2790 C.2    39  PHE39       0.2595
      4  O         14.5810   74.5600   61.1580 O.2    39  PHE39      -0.2718
      5  CB        13.8830   73.2570   58.8130 C.3    39  PHE39       0.0547
      6  CG        13.1590   72.1970   58.1870 C.ar   39  PHE39      -0.0202
      7  CD1       12.1680   71.5970   58.9280 C.ar   39  PHE39      -0.0042
      8  CD2       13.3950   71.8150   56.8980 C.ar   39  PHE39      -0.0042
      9  CE1       11.4170   70.5990   58.4090 C.ar   39  PHE39      -0.0003
     10  CE2       12.6450   70.8050   56.3540 C.ar   39  PHE39      -0.0003
     11  CZ        11.6540   70.1960   57.1110 C.ar   39  PHE39      -0.0000
     12  N         13.8770   76.3150   59.9040 N.am   40  LEU40      -0.1980
     13  CA        14.7710   77.2360   60.5510 C.3    40  LEU40       0.1596
     14  C         14.0570   78.2390   61.4420 C.2    40  LEU40       0.2287
     15  O         14.7050   79.0950   62.0620 O.2    40  LEU40      -0.2864
     16  CB        15.5440   77.9570   59.4520 C.3    40  LEU40       0.0297
     17  CG        16.8780   77.2800   59.1490 C.3    40  LEU40       0.0022
     18  CD1       16.7560   75.7910   59.2180 C.3    40  LEU40       0.0001
     19  CD2       17.2950   77.6680   57.7630 C.3    40  LEU40       0.0001
     20  N         12.9810   70.3390   63.2190 N.3    46  ARG46      -0.1231
     21  CA        13.7520   70.3540   62.0020 C.3    46  ARG46       0.1694
     22  C         13.4890   69.0110   61.3510 C.2    46  ARG46       0.2591
     23  O         12.8010   68.1460   61.8910 O.2    46  ARG46      -0.2718
     24  CB        15.2330   70.5170   62.3160 C.3    46  ARG46       0.0321
     25  CG        15.4930   71.7790   63.1060 C.3    46  ARG46       0.0489
     26  CD        16.8590   72.2980   62.7870 C.3    46  ARG46       0.2205
     27  NE        17.8960   71.4350   63.3260 N.pl3  46  ARG46      -0.0865
     28  CZ        18.3170   71.4620   64.5830 C.cat  46  ARG46       0.5346
     29  NH1       17.7910   72.3210   65.4530 N.pl3  46  ARG46       0.1354
     30  NH2       19.2690   70.6230   64.9600 N.pl3  46  ARG46       0.1354
     31  N         14.0560   68.8380   60.1760 N.am   47  VAL47      -0.1980
     32  CA        13.8760   67.5940   59.4610 C.3    47  VAL47       0.1595
     33  C         14.1590   66.3280   60.2730 C.2    47  VAL47       0.2287
     34  O         13.5390   65.2930   60.0480 O.2    47  VAL47      -0.2864
     35  CB        14.7920   67.5820   58.2120 C.3    47  VAL47       0.0276
     36  CG1       15.1070   68.9930   57.7490 C.3    47  VAL47       0.0022
     37  CG2       16.1240   66.9530   58.5780 C.3    47  VAL47       0.0022
     38  N         22.9560   76.0730   64.9650 N.3    61  PHE61      -0.1241
     39  CA        22.8280   74.6520   65.2530 C.3    61  PHE61       0.1605
     40  C         23.7830   73.8910   64.3420 C.2    61  PHE61       0.2264
     41  O         24.1510   74.3760   63.2710 O.2    61  PHE61      -0.2867
     42  CB        21.4060   74.1220   65.1680 C.3    61  PHE61       0.0534
     43  CG        20.8110   74.2070   63.8100 C.ar   61  PHE61      -0.0203
     44  CD1       20.9450   73.1810   62.9000 C.ar   61  PHE61      -0.0042
     45  CD2       20.1160   75.3270   63.4410 C.ar   61  PHE61      -0.0042
     46  CE1       20.3860   73.2760   61.6340 C.ar   61  PHE61      -0.0003
     47  CE2       19.5570   75.4280   62.1690 C.ar   61  PHE61      -0.0003
     48  CZ        19.6840   74.4010   61.2630 C.ar   61  PHE61      -0.0000
     49  N         24.8800   71.5520   61.5720 N.3    63  ASN63      -0.1225
     50  CA        24.1950   71.1390   60.3550 C.3    63  ASN63       0.1785
     51  C         23.7330   69.7160   60.5460 C.2    63  ASN63       0.2597
     52  O         24.4900   68.8890   61.0100 O.2    63  ASN63      -0.2718
     53  CB        25.1260   71.2370   59.1490 C.3    63  ASN63       0.1169
     54  CG        24.3660   71.2380   57.8480 C.2    63  ASN63       0.2627
     55  OD1       23.6260   70.2960   57.5710 O.2    63  ASN63      -0.2716
     56  ND2       24.5270   72.2970   57.0480 N.am   63  ASN63      -0.0877
     57  N         22.4920   69.4280   60.1900 N.am   64  ASP64      -0.1960
     58  CA        21.9500   68.0810   60.3400 C.3    64  ASP64       0.1840
     59  C         22.5410   67.1010   59.3280 C.2    64  ASP64       0.2622
     60  O         22.3280   65.8900   59.4110 O.2    64  ASP64      -0.2715
     61  CB        20.4280   68.1020   60.2130 C.3    64  ASP64       0.1450
     62  CG        19.7620   68.8030   61.3750 C.2    64  ASP64       0.3671
     63  OD1       20.1310   68.5130   62.5310 O.co2  64  ASP64      -0.2456
     64  OD2       18.8570   69.6230   61.1260 O.co2  64  ASP64      -0.2456
     65  N         23.2830   67.6210   58.3600 N.am   65  PHE65      -0.1974
     66  CA        23.9150   66.7740   57.3360 C.3    65  PHE65       0.1639
     67  C         25.2770   67.3620   57.0880 C.2    65  PHE65       0.2290
     68  O         25.6470   67.6940   55.9720 O.2    65  PHE65      -0.2864
     69  CB        23.1730   66.8810   56.0300 C.3    65  PHE65       0.0560
     70  CG        21.7360   66.6050   56.1650 C.ar   65  PHE65      -0.0200
     71  CD1       21.3070   65.3330   56.4620 C.ar   65  PHE65      -0.0042
     72  CD2       20.8100   67.6090   56.0140 C.ar   65  PHE65      -0.0042
     73  CE1       19.9710   65.0660   56.6160 C.ar   65  PHE65      -0.0003
     74  CE2       19.4690   67.3530   56.0960 C.ar   65  PHE65      -0.0003
     75  CZ        19.0490   66.0780   56.4560 C.ar   65  PHE65      -0.0000
     76  N         24.7880   75.9910   61.1080 N.3    94  VAL94      -0.1245
     77  CA        23.9170   76.9130   60.4210 C.3    94  VAL94       0.1561
     78  C         23.5990   78.0450   61.3850 C.2    94  VAL94       0.2260
     79  O         23.3050   77.8070   62.5660 O.2    94  VAL94      -0.2867
     80  CB        22.5980   76.2220   60.1420 C.3    94  VAL94       0.0252
     81  CG1       21.5540   77.2180   59.6800 C.3    94  VAL94       0.0019
     82  CG2       22.7780   75.0690   59.1570 C.3    94  VAL94       0.0019
     83  N         24.9540   82.0520   51.6710 N.3   139  ASN139     -0.1240
     84  CA        24.6150   81.7650   50.2840 C.3   139  ASN139      0.1653
     85  C         23.2150   82.2770   50.3150 C.2   139  ASN139      0.2266
     86  O         22.3610   81.6810   50.9610 O.2   139  ASN139     -0.2867
     87  CB        24.3190   80.2940   50.0930 C.3   139  ASN139      0.1155
     88  CG        25.4920   79.5290   49.6430 C.2   139  ASN139      0.2627
     89  OD1       26.4020   80.0570   49.0110 O.2   139  ASN139     -0.2716
     90  ND2       25.4870   78.2430   49.9580 N.am  139  ASN139     -0.0877
     91  N         20.0170   78.1880   47.2000 N.3   146  CYS146     -0.1221
     92  CA        19.5290   78.1390   48.5510 C.3   146  CYS146      0.1808
     93  C         18.0660   77.6730   48.5190 C.2   146  CYS146      0.2602
     94  O         17.2540   78.2340   47.7860 O.2   146  CYS146     -0.2717
     95  CB        19.7280   79.5420   49.1030 C.3   146  CYS146      0.0970
     96  SG        18.9630   79.7570   50.7220 S.3   146  CYS146     -0.0800
     97  N         17.7280   76.6460   49.2990 N.am  147  SER147     -0.1938
     98  CA        16.3630   76.1280   49.3340 C.3   147  SER147      0.2055
     99  C         15.5110   76.8690   50.3520 C.2   147  SER147      0.2643
    100  O         14.4170   77.3350   50.0350 O.2   147  SER147     -0.2714
    101  CB        16.3240   74.5990   49.5420 C.3   147  SER147      0.2130
    102  OG        17.0380   73.9380   48.5110 O.3   147  SER147     -0.2179
    103  N         16.0170   76.9900   51.5710 N.am  148  ASN148     -0.1971
    104  CA        15.2560   77.6890   52.6180 C.3   148  ASN148      0.1688
    105  C         15.4750   79.1560   52.6130 C.2   148  ASN148      0.2292
    106  O         16.5790   79.6720   52.7390 O.2   148  ASN148     -0.2864
    107  CB        15.5170   77.2220   54.0110 C.3   148  ASN148      0.1181
    108  CG        14.4560   77.7470   55.0010 C.2   148  ASN148      0.2629
    109  OD1       14.3040   78.9490   55.2840 O.2   148  ASN148     -0.2716
    110  ND2       13.7000   76.7980   55.5410 N.am  148  ASN148     -0.0877
    111  N         19.8140   83.1800   56.6450 N.3   152  HIS152     -0.1226
    112  CA        20.7930   82.5410   57.5130 C.3   152  HIS152      0.1752
    113  C         22.1470   82.3700   56.8840 C.2   152  HIS152      0.2597
    114  O         22.2790   82.4980   55.6850 O.2   152  HIS152     -0.2718
    115  CB        20.2380   81.1400   57.7920 C.3   152  HIS152      0.0759
    116  CG        20.1940   80.3070   56.5530 C.ar  152  HIS152      0.0818
    117  ND1       19.0840   80.2640   55.7070 N.ar  152  HIS152     -0.2268
    118  CD2       21.1610   79.4880   56.0510 C.ar  152  HIS152      0.1154
    119  CE1       19.3910   79.4330   54.7080 C.ar  152  HIS152      0.1986
    120  NE2       20.6260   78.9480   54.8960 N.ar  152  HIS152     -0.2212
    121  N         23.1530   82.0800   57.6970 N.am  153  GLY153     -0.1942
    122  CA        24.4900   81.8980   57.1650 C.3   153  GLY153      0.2014
    123  C         24.9770   80.5250   57.5410 C.2   153  GLY153      0.2638
    124  O         24.1880   79.7900   58.0950 O.2   153  GLY153     -0.2714
    125  N         26.2280   80.1660   57.2850 N.am  154  GLN154     -0.1977
    126  CA        26.6800   78.8370   57.6700 C.3   154  GLN154      0.1601
    127  C         28.0830   79.0090   58.1360 C.2   154  GLN154      0.2287
    128  O         28.7170   79.9930   57.7780 O.2   154  GLN154     -0.2864
    129  CB        26.8510   77.9860   56.4290 C.3   154  GLN154      0.0394
    130  CG        25.5590   77.6240   55.8470 C.3   154  GLN154      0.0908
    131  CD        25.6650   76.4880   54.8690 C.2   154  GLN154      0.2608
    132  OE1       26.4200   75.5360   55.0620 O.2   154  GLN154     -0.2717
    133  NE2       24.8700   76.5650   53.8140 N.am  154  GLN154     -0.0878
@<TRIPOS>BOND
     1    91    92    1
     2    94    93    2
     3   102   101    1
     4    93    92    1
     5    93    97   am
     6    92    95    1
     7    89    88    2
     8    95    96    1
     9    97    98    1
    10    98   101    1
    11    98    99    1
    12    88    90   am
    13    88    87    1
    14   100    99    2
    15    87    84    1
    16    84    85    1
    17    84    83    1
    18    85    86    2
    19    99   103   am
    20   103   104    1
    21   105   104    1
    22   105   106    2
    23   104   107    1
    24   133   131   am
    25   107   108    1
    26   119   120   ar
    27   119   117   ar
    28   131   132    2
    29   131   130    1
    30   120   118   ar
    31   108   109    2
    32   108   110   am
    33   114   113    2
    34   117   116   ar
    35   130   129    1
    36    68    67    2
    37    72    74   ar
    38    72    70   ar
    39    69    70    1
    40    69    66    1
    41   118   116   ar
    42    74    75   ar
    43    70    71   ar
    44    10     8   ar
    45    10    11   ar
    46   129   126    1
    47    75    73   ar
    48    71    73   ar
    49   116   115    1
    50   111   112    1
    51   113   112    1
    52   113   121   am
    53     8     6   ar
    54    56    54   am
    55    67    66    1
    56    11     9   ar
    57   122   123    1
    58   122   121    1
    59   125   123   am
    60   125   126    1
    61    66    65    1
    62   112   115    1
    63   123   124    2
    64    55    54    2
    65   126   127    1
    66    36    35    1
    67    19    17    1
    68   128   127    2
    69    54    53    1
    70     6     5    1
    71     6     7   ar
    72    35    37    1
    73    35    32    1
    74    65    59   am
    75     9     7   ar
    76     1     2    1
    77     5     2    1
    78    53    50    1
    79    17    18    1
    80    17    16    1
    81    82    80    1
    82    59    60    2
    83    59    58    1
    84    16    13    1
    85    32    31    1
    86    32    33    1
    87     2     3    1
    88    81    80    1
    89    12     3   am
    90    12    13    1
    91    34    33    2
    92    80    77    1
    93    31    22   am
    94    57    58    1
    95    57    51   am
    96    61    58    1
    97    61    62    1
    98     3     4    2
    99    50    51    1
   100    50    49    1
   101    77    76    1
   102    77    78    1
   103    51    52    2
   104    13    14    1
   105    64    62   ar
   106    48    46   ar
   107    48    47   ar
   108    22    23    2
   109    22    21    1
   110    62    63   ar
   111    78    79    2
   112    14    15    2
   113    46    44   ar
   114    21    24    1
   115    21    20    1
   116    47    45   ar
   117    24    25    1
   118    26    25    1
   119    26    27    1
   120    44    43   ar
   121    41    40    2
   122    27    28    2
   123    45    43   ar
   124    43    42    1
   125    40    39    1
   126    28    30    1
   127    28    29    1
   128    38    39    1
   129    42    39    1
