@<TRIPOS>MOLECULE
tmp/1hxsA00.pdb
 202 193 0 0 0
SMALL
GASTEIGER

@<TRIPOS>ATOM
      1  N         30.0550   60.7690  118.3880 N.3    96  ILE96      -0.1231
      2  CA        29.2000   59.6760  117.9320 C.3    96  ILE96       0.1692
      3  C         29.7950   58.3030  118.1870 C.2    96  ILE96       0.2593
      4  O         30.9540   58.0300  117.8830 O.2    96  ILE96      -0.2718
      5  CB        28.9110   59.8660  116.4400 C.3    96  ILE96       0.0266
      6  CG1       28.1990   61.2010  116.2650 C.3    96  ILE96       0.0019
      7  CG2       28.0100   58.7590  115.9080 C.3    96  ILE96       0.0020
      8  CD1       28.2980   61.7570  114.8490 C.3    96  ILE96       0.0001
      9  N         28.9720   57.4650  118.8060 N.am   97  THR97      -0.1939
     10  CA        29.3750   56.1210  119.1940 C.3    97  THR97       0.2028
     11  C         28.1870   55.2540  119.6030 C.2    97  THR97       0.2642
     12  O         27.1590   55.7990  120.0050 O.2    97  THR97      -0.2714
     13  CB        30.3560   56.2070  120.3850 C.3    97  THR97       0.1808
     14  OG1       30.7240   54.8820  120.7070 O.3    97  THR97      -0.2208
     15  CG2       29.7490   56.8350  121.6330 C.3    97  THR97       0.0379
     16  N         28.2240   53.9280  119.5730 N.am   98  TYR98      -0.1959
     17  CA        27.1810   53.1050  120.1670 C.3    98  TYR98       0.1771
     18  C         27.6580   52.5780  121.5180 C.2    98  TYR98       0.2619
     19  O         27.0490   51.7030  122.1300 O.2    98  TYR98      -0.2715
     20  CB        26.8190   51.9310  119.2390 C.3    98  TYR98       0.0574
     21  CG        27.9590   51.0120  118.8590 C.ar   98  TYR98      -0.0198
     22  CD1       28.4760   50.0870  119.7630 C.ar   98  TYR98      -0.0009
     23  CD2       28.5060   51.1020  117.5900 C.ar   98  TYR98      -0.0009
     24  CE1       29.5440   49.2660  119.4150 C.ar   98  TYR98       0.0417
     25  CE2       29.5700   50.2800  117.2330 C.ar   98  TYR98       0.0417
     26  CZ        30.0830   49.3760  118.1430 C.ar   98  TYR98       0.1957
     27  OH        31.1690   48.6030  117.7880 O.3    98  TYR98      -0.2866
     28  N         28.8100   53.0430  121.9880 N.am   99  LYS99      -0.1977
     29  CA        29.3410   52.5450  123.2610 C.3    99  LYS99       0.1596
     30  C         29.0070   53.3150  124.5280 C.2    99  LYS99       0.2287
     31  O         29.4980   52.9800  125.5990 O.2    99  LYS99      -0.2864
     32  CB        30.8460   52.4350  123.1520 C.3    99  LYS99       0.0298
     33  CG        31.2090   51.2780  122.2470 C.3    99  LYS99       0.0038
     34  CD        32.6790   51.4290  121.9440 C.3    99  LYS99       0.0206
     35  CE        33.1160   50.2380  121.1360 C.3    99  LYS99       0.1093
     36  NZ        34.5090   50.4230  120.7310 N.3    99  LYS99      -0.1314
     37  N         26.8080   48.4480  107.5830 N.3   116  PHE116     -0.1241
     38  CA        25.4020   48.8080  107.5700 C.3   116  PHE116      0.1605
     39  C         25.1620   50.2660  107.2290 C.2   116  PHE116      0.2264
     40  O         26.0440   51.1130  107.3720 O.2   116  PHE116     -0.2867
     41  CB        24.7300   48.5400  108.9330 C.3   116  PHE116      0.0534
     42  CG        25.3970   49.1490  110.1630 C.ar  116  PHE116     -0.0203
     43  CD1       25.1500   50.4760  110.5250 C.ar  116  PHE116     -0.0042
     44  CD2       26.2450   48.3690  110.9490 C.ar  116  PHE116     -0.0042
     45  CE1       25.7430   51.0090  111.6730 C.ar  116  PHE116     -0.0003
     46  CE2       26.8290   48.9140  112.0910 C.ar  116  PHE116     -0.0003
     47  CZ        26.5810   50.2280  112.4610 C.ar  116  PHE116     -0.0000
     48  N         23.0760   53.5310  108.4320 N.3   118  MET118     -0.1245
     49  CA        22.6020   53.8730  109.7510 C.3   118  MET118      0.1570
     50  C         21.3930   54.7890  109.7140 C.2   118  MET118      0.2261
     51  O         21.4030   55.8160  109.0380 O.2   118  MET118     -0.2867
     52  CB        23.7650   54.5010  110.4720 C.3   118  MET118      0.0387
     53  CG        23.4800   54.8100  111.9150 C.3   118  MET118      0.0595
     54  SD        24.9670   55.4620  112.7260 S.3   118  MET118     -0.1393
     55  CE        24.9980   57.0640  111.9760 C.3   118  MET118      0.0692
     56  N         19.2090   57.2680  111.9980 N.3   120  LEU120     -0.1245
     57  CA        19.1680   57.9590  113.2760 C.3   120  LEU120      0.1561
     58  C         17.8400   58.6730  113.4570 C.2   120  LEU120      0.2260
     59  O         17.3980   59.4630  112.6110 O.2   120  LEU120     -0.2867
     60  CB        20.2890   58.9960  113.3930 C.3   120  LEU120      0.0270
     61  CG        21.7320   58.4820  113.4010 C.3   120  LEU120      0.0019
     62  CD1       22.7080   59.6250  113.5160 C.3   120  LEU120      0.0001
     63  CD2       21.9400   57.5740  114.5930 C.3   120  LEU120      0.0001
     64  N         15.5170   61.0510  116.2590 N.3   122  PHE122     -0.1241
     65  CA        15.7560   61.9550  117.3740 C.3   122  PHE122      0.1605
     66  C         14.5080   62.3180  118.1580 C.2   122  PHE122      0.2264
     67  O         13.5890   62.9440  117.6260 O.2   122  PHE122     -0.2867
     68  CB        16.3880   63.2490  116.8750 C.3   122  PHE122      0.0534
     69  CG        17.6980   63.0390  116.1430 C.ar  122  PHE122     -0.0203
     70  CD1       17.6960   62.7330  114.7780 C.ar  122  PHE122     -0.0042
     71  CD2       18.9060   63.1620  116.8300 C.ar  122  PHE122     -0.0042
     72  CE1       18.9070   62.5420  114.1140 C.ar  122  PHE122     -0.0003
     73  CE2       20.1100   62.9700  116.1530 C.ar  122  PHE122     -0.0003
     74  CZ        20.1160   62.6540  114.7960 C.ar  122  PHE122     -0.0000
     75  N         20.5020   70.4090  115.0310 N.3   143  ILE143     -0.1245
     76  CA        21.3610   69.2490  115.2510 C.3   143  ILE143      0.1561
     77  C         22.3870   69.2620  114.1230 C.2   143  ILE143      0.2260
     78  O         22.0750   68.9820  112.9650 O.2   143  ILE143     -0.2867
     79  CB        20.5420   67.9520  115.2050 C.3   143  ILE143      0.0252
     80  CG1       19.4680   67.9780  116.2670 C.3   143  ILE143      0.0019
     81  CG2       21.4570   66.7580  115.4210 C.3   143  ILE143      0.0019
     82  CD1       18.3960   66.8890  116.0870 C.3   143  ILE143      0.0001
     83  N         25.8680   67.9190  112.3460 N.3   145  TYR145     -0.1241
     84  CA        26.8970   66.9140  112.3110 C.3   145  TYR145      0.1605
     85  C         28.2270   67.5920  112.0170 C.2   145  TYR145      0.2264
     86  O         28.4070   68.1870  110.9590 O.2   145  TYR145     -0.2867
     87  CB        26.5860   65.9000  111.2360 C.3   145  TYR145      0.0534
     88  CG        27.6570   64.8400  111.0380 C.ar  145  TYR145     -0.0201
     89  CD1       28.4430   64.3830  112.1040 C.ar  145  TYR145     -0.0009
     90  CD2       27.8530   64.3250  109.7600 C.ar  145  TYR145     -0.0009
     91  CE1       29.4190   63.4190  111.8920 C.ar  145  TYR145      0.0417
     92  CE2       28.8240   63.3510  109.5440 C.ar  145  TYR145      0.0417
     93  CZ        29.6000   62.9090  110.6060 C.ar  145  TYR145      0.1957
     94  OH        30.5570   61.9490  110.3740 O.3   145  TYR145     -0.2866
     95  N         26.0420   68.6980  107.4390 N.2   167  PRO167     -0.2584
     96  CA        24.6060   68.5330  107.3470 C.3   167  PRO167      0.1895
     97  C         24.0420   68.9890  108.7030 C.2   167  PRO167      0.2359
     98  O         24.5940   68.6790  109.7640 O.2   167  PRO167     -0.2858
     99  CB        24.3290   67.0790  107.1730 C.2   167  PRO167      0.0071
    100  CG        25.6530   66.3830  107.3670 C.2   167  PRO167      0.0180
    101  CD        26.7400   67.4350  107.5450 C.2   167  PRO167      0.0937
    102  N         20.1450   69.2870  110.9990 N.3   169  ILE169     -0.1245
    103  CA        18.7030   69.1320  111.0290 C.3   169  ILE169      0.1561
    104  C         18.1220   70.2580  111.8820 C.2   169  ILE169      0.2260
    105  O         18.5520   70.4800  113.0120 O.2   169  ILE169     -0.2867
    106  CB        18.2900   67.7900  111.6610 C.3   169  ILE169      0.0252
    107  CG1       18.8110   66.6290  110.8560 C.3   169  ILE169      0.0019
    108  CG2       16.7710   67.7260  111.7410 C.3   169  ILE169      0.0019
    109  CD1       18.7410   65.3340  111.6720 C.3   169  ILE169      0.0001
    110  N         17.1570   60.7980  109.9250 N.3   180  ILE180     -0.1245
    111  CA        17.9610   60.7610  108.7230 C.3   180  ILE180      0.1561
    112  C         18.6130   59.4010  108.5400 C.2   180  ILE180      0.2260
    113  O         18.7190   58.6010  109.4760 O.2   180  ILE180     -0.2867
    114  CB        19.0990   61.8300  108.7130 C.3   180  ILE180      0.0252
    115  CG1       20.0090   61.7560  109.9180 C.3   180  ILE180      0.0019
    116  CG2       18.4410   63.1820  108.6350 C.3   180  ILE180      0.0019
    117  CD1       21.2530   60.8900  109.6990 C.3   180  ILE180      0.0001
    118  N         22.2420   57.5730  106.9480 N.3   182  VAL182     -0.1245
    119  CA        23.6180   57.7450  106.5450 C.3   182  VAL182      0.1561
    120  C         24.1000   56.4610  105.8710 C.2   182  VAL182      0.2260
    121  O         23.7020   55.3660  106.2750 O.2   182  VAL182     -0.2867
    122  CB        24.3480   58.1210  107.8450 C.3   182  VAL182      0.0252
    123  CG1       25.7410   57.6220  107.9750 C.3   182  VAL182      0.0019
    124  CG2       24.5060   59.6340  107.7780 C.3   182  VAL182      0.0019
    125  N         29.7830   54.5360  106.1760 N.3   185  VAL185     -0.1245
    126  CA        30.7890   55.5690  106.0010 C.3   185  VAL185      0.1561
    127  C         32.1810   55.2150  106.4870 C.2   185  VAL185      0.2260
    128  O         33.0570   56.0620  106.5660 O.2   185  VAL185     -0.2867
    129  CB        30.3510   56.8830  106.7120 C.3   185  VAL185      0.0252
    130  CG1       29.1280   57.4360  106.0080 C.3   185  VAL185      0.0019
    131  CG2       30.0960   56.6420  108.1860 C.3   185  VAL185      0.0019
    132  N         33.1040   48.0900  109.4690 N.3   191  TYR191     -0.1227
    133  CA        33.3720   48.6690  110.7800 C.3   191  TYR191      0.1736
    134  C         34.0380   47.6190  111.6690 C.2   191  TYR191      0.2596
    135  O         33.6410   46.4410  111.6580 O.2   191  TYR191     -0.2718
    136  CB        32.0940   49.0950  111.5030 C.3   191  TYR191      0.0548
    137  CG        31.3260   50.2380  110.8660 C.ar  191  TYR191     -0.0200
    138  CD1       32.0030   51.3930  110.4920 C.ar  191  TYR191     -0.0009
    139  CD2       29.9530   50.1270  110.6350 C.ar  191  TYR191     -0.0009
    140  CE1       31.3150   52.4480  109.9090 C.ar  191  TYR191      0.0417
    141  CE2       29.2540   51.1840  110.0500 C.ar  191  TYR191      0.0417
    142  CZ        29.9530   52.3320  109.6740 C.ar  191  TYR191      0.1957
    143  OH        29.3230   53.3640  109.0250 O.3   191  TYR191     -0.2866
    144  N         35.0590   47.9780  112.4340 N.am  192  SER192     -0.1938
    145  CA        35.6630   47.0350  113.3710 C.3   192  SER192      0.2055
    146  C         35.0900   47.1690  114.7540 C.2   192  SER192      0.2643
    147  O         35.2360   48.1860  115.4060 O.2   192  SER192     -0.2714
    148  CB        37.1520   47.2130  113.5490 C.3   192  SER192      0.2130
    149  OG        37.8400   46.7940  112.3780 O.3   192  SER192     -0.2179
    150  N         34.4510   46.1430  115.2730 N.am  193  HIS193     -0.1973
    151  CA        33.9170   46.2210  116.6330 C.3   193  HIS193      0.1656
    152  C         35.0430   45.9880  117.6420 C.2   193  HIS193      0.2291
    153  O         34.9300   46.2680  118.8260 O.2   193  HIS193     -0.2864
    154  CB        32.8430   45.1730  116.8630 C.3   193  HIS193      0.0771
    155  CG        31.6210   45.2920  115.9620 C.ar  193  HIS193      0.0820
    156  ND1       30.6550   44.3990  115.8140 N.ar  193  HIS193     -0.2267
    157  CD2       31.3160   46.3590  115.1330 C.ar  193  HIS193      0.1154
    158  CE1       29.7910   44.8570  114.9500 C.ar  193  HIS193      0.1986
    159  NE2       30.1960   46.0300  114.5460 N.ar  193  HIS193     -0.2212
    160  N         39.4860   54.3060  112.9750 N.3   220  LEU220     -0.1231
    161  CA        38.4930   53.3630  112.3820 C.3   220  LEU220      0.1693
    162  C         37.0470   53.6860  112.7600 C.2   220  LEU220      0.2592
    163  O         36.0620   53.4420  112.0330 O.2   220  LEU220     -0.2718
    164  CB        38.6850   51.9220  112.8770 C.3   220  LEU220      0.0284
    165  CG        39.6910   51.0340  112.1760 C.3   220  LEU220      0.0019
    166  CD1       39.9090   49.7070  112.9170 C.3   220  LEU220      0.0001
    167  CD2       39.1180   50.7440  110.7950 C.3   220  LEU220      0.0001
    168  N         36.9840   54.1010  114.0310 N.am  221  ASN221     -0.1974
    169  CA        35.7370   54.5600  114.6260 C.3   221  ASN221      0.1688
    170  C         35.6560   56.0500  114.9980 C.2   221  ASN221      0.2292
    171  O         34.8230   56.4320  115.8410 O.2   221  ASN221     -0.2864
    172  CB        35.4390   53.7310  115.8770 C.3   221  ASN221      0.1181
    173  CG        36.5990   53.9890  116.8110 C.2   221  ASN221      0.2629
    174  OD1       37.7570   53.6560  116.5000 O.2   221  ASN221     -0.2716
    175  ND2       36.5000   54.6820  117.9350 N.am  221  ASN221     -0.0877
    176  N         34.0760   59.1460  114.1460 N.3   223  PHE223     -0.1241
    177  CA        33.0470   59.6340  113.2440 C.3   223  PHE223      0.1605
    178  C         32.6670   61.0720  113.4620 C.2   223  PHE223      0.2264
    179  O         31.7040   61.5700  112.8940 O.2   223  PHE223     -0.2867
    180  CB        31.8050   58.8130  113.4130 C.3   223  PHE223      0.0534
    181  CG        32.1750   57.3740  113.2280 C.ar  223  PHE223     -0.0203
    182  CD1       32.6800   56.9580  111.9890 C.ar  223  PHE223     -0.0042
    183  CD2       32.0530   56.4930  114.3000 C.ar  223  PHE223     -0.0042
    184  CE1       33.0720   55.6310  111.8180 C.ar  223  PHE223     -0.0003
    185  CE2       32.4500   55.1660  114.1110 C.ar  223  PHE223     -0.0003
    186  CZ        32.9550   54.7330  112.8730 C.ar  223  PHE223     -0.0000
    187  N         28.0030   65.1790  117.1640 N.3   226  LEU226     -0.1245
    188  CA        26.7840   65.9280  116.9300 C.3   226  LEU226      0.1561
    189  C         26.8120   67.1380  117.8600 C.2   226  LEU226      0.2260
    190  O         27.1720   67.0300  119.0420 O.2   226  LEU226     -0.2867
    191  CB        25.5380   65.1210  117.2450 C.3   226  LEU226      0.0270
    192  CG        25.2520   63.9150  116.3700 C.3   226  LEU226      0.0019
    193  CD1       23.9060   63.3410  116.7420 C.3   226  LEU226      0.0001
    194  CD2       25.2540   64.3220  114.9050 C.3   226  LEU226      0.0001
    195  N         19.6020   54.7010  117.2390 N.3   247  LEU247     -0.1245
    196  CA        20.3230   54.1590  116.1190 C.3   247  LEU247      0.1561
    197  C         19.7440   52.8240  115.6860 C.2   247  LEU247      0.2260
    198  O         19.5700   51.9280  116.5140 O.2   247  LEU247     -0.2867
    199  CB        21.7750   54.0040  116.5310 C.3   247  LEU247      0.0270
    200  CG        22.8950   53.7720  115.5150 C.3   247  LEU247      0.0019
    201  CD1       24.2050   53.8430  116.2730 C.3   247  LEU247      0.0001
    202  CD2       22.8480   52.4030  114.8580 C.3   247  LEU247      0.0001
@<TRIPOS>BOND
     1   120   121    2
     2   120   119    1
     3   126   125    1
     4   126   127    1
     5   126   129    1
     6   130   129    1
     7   127   128    2
     8   119   118    1
     9   119   122    1
    10   129   131    1
    11    99    96    1
    12    99   100    2
    13    39    40    2
    14    39    38    1
    15    96    95    1
    16    96    97    1
    17   100   101    1
    18    95   101    2
    19    38    37    1
    20    38    41    1
    21   124   122    1
    22   122   123    1
    23    48    49    1
    24   112   111    1
    25   112   113    2
    26   116   114    1
    27    97    98    2
    28   114   111    1
    29   114   115    1
    30   111   110    1
    31    41    42    1
    32   143   142    1
    33    51    50    2
    34   132   133    1
    35    92    90   ar
    36    92    93   ar
    37   142   140   ar
    38   142   141   ar
    39   117   115    1
    40    50    49    1
    41    49    52    1
    42    90    88   ar
    43   140   138   ar
    44   141   139   ar
    45    42    43   ar
    46    42    44   ar
    47    94    93    1
    48    52    53    1
    49   138   137   ar
    50    43    45   ar
    51    93    91   ar
    52   139   137   ar
    53   133   136    1
    54   133   134    1
    55   167   165    1
    56   107   106    1
    57   107   109    1
    58   137   136    1
    59    44    46   ar
    60    86    85    2
    61   102   103    1
    62   103   106    1
    63   103   104    1
    64    88    87    1
    65    88    89   ar
    66    87    84    1
    67   135   134    2
    68   106   108    1
    69   134   144   am
    70    45    47   ar
    71   184   182   ar
    72   184   186   ar
    73   104   105    2
    74    91    89   ar
    75    53    54    1
    76    55    54    1
    77   182   181   ar
    78    56    57    1
    79    85    84    1
    80   163   162    2
    81    46    47   ar
    82   165   164    1
    83   165   166    1
    84    84    83    1
    85   149   148    1
    86   161   162    1
    87   161   164    1
    88   161   160    1
    89   144   145    1
    90    59    58    2
    91   162   168   am
    92   186   185   ar
    93   179   178    2
    94    78    77    2
    95   181   180    1
    96   181   183   ar
    97   177   180    1
    98   177   178    1
    99   177   176    1
   100    57    60    1
   101    57    58    1
   102   145   148    1
   103   145   146    1
   104    60    61    1
   105    61    62    1
   106    61    63    1
   107   168   169    1
   108   185   183   ar
   109    72    70   ar
   110    72    74   ar
   111    77    76    1
   112   159   158   ar
   113   159   157   ar
   114   169   170    1
   115   169   172    1
   116   146   150   am
   117   146   147    2
   118    70    69   ar
   119    74    73   ar
   120     8     6    1
   121   202   200    1
   122   194   192    1
   123   158   156   ar
   124   170   171    2
   125    75    76    1
   126   157   155   ar
   127    79    76    1
   128    79    81    1
   129    79    80    1
   130   150   151    1
   131   200   201    1
   132   200   199    1
   133   197   196    1
   134   197   198    2
   135   156   155   ar
   136   172   173    1
   137     7     5    1
   138   155   154    1
   139    82    80    1
   140   196   199    1
   141   196   195    1
   142    69    71   ar
   143    69    68    1
   144    73    71   ar
   145    64    65    1
   146     6     5    1
   147   192   193    1
   148   192   191    1
   149     5     2    1
   150   174   173    2
   151   151   154    1
   152   151   152    1
   153   173   175   am
   154    68    65    1
   155   188   187    1
   156   188   191    1
   157   188   189    1
   158    25    23   ar
   159    25    26   ar
   160    65    66    1
   161    23    21   ar
   162    67    66    2
   163   152   153    2
   164    27    26    1
   165   189   190    2
   166     4     3    2
   167     2     3    1
   168     2     1    1
   169    26    24   ar
   170     3     9   am
   171     9    10    1
   172    21    20    1
   173    21    22   ar
   174    10    11    1
   175    10    13    1
   176    20    17    1
   177    24    22   ar
   178    16    11   am
   179    16    17    1
   180    11    12    2
   181    17    18    1
   182    13    14    1
   183    13    15    1
   184    36    35    1
   185    35    34    1
   186    18    28   am
   187    18    19    2
   188    34    33    1
   189    28    29    1
   190    33    32    1
   191    32    29    1
   192    29    30    1
   193    30    31    2
