@<TRIPOS>MOLECULE
tmp/1hxwA00.pdb
 123 116 0 0 0
SMALL
GASTEIGER

@<TRIPOS>ATOM
      1  N         26.8340   23.5410    5.8440 N.3     8  ARG8       -0.1245
      2  CA        25.5900   24.1260    6.3090 C.3     8  ARG8        0.1563
      3  C         25.8770   25.5580    6.7290 C.2     8  ARG8        0.2260
      4  O         26.8580   25.7190    7.4780 O.2     8  ARG8       -0.2867
      5  CB        25.0390   23.3500    7.5120 C.3     8  ARG8        0.0307
      6  CG        24.3070   22.0510    7.2370 C.3     8  ARG8        0.0489
      7  CD        23.9480   21.3590    8.5280 C.3     8  ARG8        0.2205
      8  NE        22.8150   20.4290    8.2880 N.pl3   8  ARG8       -0.0865
      9  CZ        21.9270   20.1430    9.2680 C.cat   8  ARG8        0.5346
     10  NH1       21.9790   20.8140   10.4720 N.pl3   8  ARG8        0.1354
     11  NH2       20.8730   19.3300    9.0640 N.pl3   8  ARG8        0.1354
     12  N         20.5340   27.8220   11.4400 N.3    23  LEU23      -0.1245
     13  CA        20.8150   27.6730   10.0580 C.3    23  LEU23       0.1561
     14  C         20.3150   28.8490    9.2510 C.2    23  LEU23       0.2260
     15  O         19.1630   29.1920    9.4400 O.2    23  LEU23      -0.2867
     16  CB        20.1730   26.3630    9.7140 C.3    23  LEU23       0.0270
     17  CG        20.2440   25.7990    8.3390 C.3    23  LEU23       0.0019
     18  CD1       21.6490   25.4110    8.0620 C.3    23  LEU23       0.0001
     19  CD2       19.4960   24.4750    8.2740 C.3    23  LEU23       0.0001
     20  N         18.3730   29.9030    6.4450 N.3    25  ASP25      -0.1239
     21  CA        17.5320   29.1200    5.5300 C.3    25  ASP25       0.1674
     22  C         16.6060   29.8560    4.5220 C.2    25  ASP25       0.2266
     23  O         15.5000   30.3260    4.8140 O.2    25  ASP25      -0.2867
     24  CB        16.7610   28.2130    6.4420 C.3    25  ASP25       0.1410
     25  CG        16.0070   27.0860    5.7560 C.2    25  ASP25       0.3668
     26  OD1       15.9380   26.9810    4.5330 O.co2  25  ASP25      -0.2456
     27  OD2       15.4370   26.3100    6.4910 O.co2  25  ASP25      -0.2456
     28  N         14.8640   28.6590    2.2200 N.3    27  GLY27      -0.1210
     29  CA        13.7090   27.8810    1.9090 C.3    27  GLY27       0.1956
     30  C         12.7510   27.8760    3.0470 C.2    27  GLY27       0.2612
     31  O         11.7520   27.2020    2.9200 O.2    27  GLY27      -0.2717
     32  N         12.9180   28.5700    4.1890 N.am   28  ALA28      -0.1965
     33  CA        11.8610   28.5820    5.2280 C.3    28  ALA28       0.1728
     34  C         11.1640   29.9680    5.1850 C.2    28  ALA28       0.2616
     35  O         11.8290   31.0290    5.2170 O.2    28  ALA28      -0.2715
     36  CB        12.5250   28.3910    6.5740 C.3    28  ALA28       0.0334
     37  N          9.8710   30.0520    5.0290 N.am   29  ASP29      -0.1957
     38  CA         9.2630   31.3510    5.1960 C.3    29  ASP29       0.1840
     39  C          9.4440   31.9310    6.5910 C.2    29  ASP29       0.2622
     40  O          9.5590   33.1250    6.7640 O.2    29  ASP29      -0.2715
     41  CB         7.8010   31.2990    5.0160 C.3    29  ASP29       0.1450
     42  CG         7.3060   30.9970    3.6330 C.2    29  ASP29       0.3671
     43  OD1        8.0820   30.7370    2.7300 O.co2  29  ASP29      -0.2456
     44  OD2        6.0950   31.0270    3.5090 O.co2  29  ASP29      -0.2456
     45  N          9.4680   31.0370    7.5750 N.am   30  ASP30      -0.1971
     46  CA         9.3990   31.3520    8.9810 C.3    30  ASP30       0.1709
     47  C         10.6690   31.0040    9.6970 C.2    30  ASP30       0.2293
     48  O         11.5030   30.2460    9.1830 O.2    30  ASP30      -0.2864
     49  CB         8.2180   30.5870    9.5890 C.3    30  ASP30       0.1436
     50  CG         6.8280   30.8950    9.0460 C.2    30  ASP30       0.3671
     51  OD1        6.3560   32.0460    8.9480 O.co2  30  ASP30      -0.2456
     52  OD2        6.1990   29.9200    8.6890 O.co2  30  ASP30      -0.2456
     53  N         12.1040   29.3500   12.9800 N.3    32  VAL32      -0.1245
     54  CA        11.6370   28.2800   13.8460 C.3    32  VAL32       0.1561
     55  C         12.8400   27.8370   14.6240 C.2    32  VAL32       0.2260
     56  O         13.8640   27.3860   14.1190 O.2    32  VAL32      -0.2867
     57  CB        11.0830   26.9980   13.1030 C.3    32  VAL32       0.0252
     58  CG1       10.3090   26.1290   14.1010 C.3    32  VAL32       0.0019
     59  CG2       10.1460   27.3370   12.0000 C.3    32  VAL32       0.0019
     60  N          2.8860   24.6960   11.3630 N.3    47  ILE47      -0.1231
     61  CA         3.7470   24.9290   10.2160 C.3    47  ILE47       0.1692
     62  C          4.0320   23.5550    9.6690 C.2    47  ILE47       0.2593
     63  O          4.1670   22.6260   10.4610 O.2    47  ILE47      -0.2718
     64  CB         5.1430   25.5270   10.5380 C.3    47  ILE47       0.0266
     65  CG1        5.7200   24.9600   11.7540 C.3    47  ILE47       0.0019
     66  CG2        4.9920   26.9580   10.7680 C.3    47  ILE47       0.0020
     67  CD1        7.1050   25.4840   11.9470 C.3    47  ILE47       0.0001
     68  N          4.2160   23.4040    8.3730 N.am   48  GLY48      -0.1942
     69  CA         4.5270   22.1210    7.8180 C.3    48  GLY48       0.2014
     70  C          5.6290   22.2810    6.8350 C.2    48  GLY48       0.2639
     71  O          6.0520   23.3760    6.5100 O.2    48  GLY48      -0.2714
     72  N          6.1020   21.1170    6.4110 N.am   49  GLY49      -0.1939
     73  CA         7.1430   21.0490    5.3990 C.3    49  GLY49       0.2014
     74  C          7.2970   19.5950    5.0570 C.2    49  GLY49       0.2638
     75  O          6.3050   18.8820    5.0920 O.2    49  GLY49      -0.2714
     76  N          8.5070   19.1350    4.7840 N.am   50  ILE50      -0.1977
     77  CA         8.7640   17.7310    4.5620 C.3    50  ILE50       0.1596
     78  C          8.5530   16.9920    5.8740 C.2    50  ILE50       0.2287
     79  O          8.9860   17.3580    6.9800 O.2    50  ILE50      -0.2864
     80  CB        10.1760   17.5200    4.0410 C.3    50  ILE50       0.0276
     81  CG1       10.0370   17.8500    2.5540 C.3    50  ILE50       0.0022
     82  CG2       10.7510   16.0910    4.2610 C.3    50  ILE50       0.0022
     83  CD1       11.3180   17.8850    1.8150 C.3    50  ILE50       0.0001
     84  N          3.3510   18.3880    9.5060 N.3    53  PHE53      -0.1241
     85  CA         3.1510   19.6330   10.2560 C.3    53  PHE53       0.1605
     86  C          3.5010   19.4960   11.7240 C.2    53  PHE53       0.2264
     87  O          3.4240   18.3550   12.2260 O.2    53  PHE53      -0.2867
     88  CB         1.6630   20.1060   10.1060 C.3    53  PHE53       0.0534
     89  CG         1.4150   20.7260    8.7630 C.ar   53  PHE53      -0.0203
     90  CD1        1.5430   19.9560    7.6090 C.ar   53  PHE53      -0.0042
     91  CD2        1.1110   22.0850    8.7080 C.ar   53  PHE53      -0.0042
     92  CE1        1.3630   20.5480    6.3730 C.ar   53  PHE53      -0.0003
     93  CE2        0.9320   22.6730    7.4560 C.ar   53  PHE53      -0.0003
     94  CZ         1.0510   21.9070    6.2830 C.ar   53  PHE53      -0.0000
     95  N         11.3550   21.7710   16.5000 N.3    80  THR80      -0.1204
     96  CA        12.0310   21.7180   15.2400 C.3    80  THR80       0.1982
     97  C         13.3230   20.9480   15.5420 C.2    80  THR80       0.2497
     98  O         13.9440   21.1130   16.6060 O.2    80  THR80      -0.2729
     99  CB        12.2980   23.1450   14.7700 C.3    80  THR80       0.1783
    100  OG1       13.0930   23.0070   13.6010 O.3    80  THR80      -0.2211
    101  CG2       13.0490   23.9800   15.7490 C.3    80  THR80       0.0376
    102  N         13.7380   20.1000   14.5920 N.am   81  PRO81      -0.2492
    103  CA        15.0090   19.4270   14.6680 C.3    81  PRO81       0.1619
    104  C         16.1570   20.4010   14.6180 C.2    81  PRO81       0.2605
    105  O         17.2520   19.9970   15.0060 O.2    81  PRO81      -0.2715
    106  CB        15.0560   18.4680   13.4960 C.3    81  PRO81       0.0570
    107  CG        13.8290   18.7270   12.6130 C.2    81  PRO81      -0.0077
    108  CD        13.0470   19.8210   13.3120 C.2    81  PRO81       0.0634
    109  N         16.0320   21.6240   14.0830 N.am   82  VAL82      -0.1978
    110  CA        17.1970   22.4560   13.9380 C.3    82  VAL82       0.1596
    111  C         16.6450   23.8550   14.0090 C.2    82  VAL82       0.2287
    112  O         15.4610   24.0860   13.7420 O.2    82  VAL82      -0.2864
    113  CB        17.9070   22.0950   12.5620 C.3    82  VAL82       0.0276
    114  CG1       17.1170   22.4880   11.3740 C.3    82  VAL82       0.0022
    115  CG2       19.1450   22.8900   12.4090 C.3    82  VAL82       0.0022
    116  N         16.1390   27.2780   12.6870 N.3    84  ILE84      -0.1245
    117  CA        15.9920   27.8440   11.3500 C.3    84  ILE84       0.1561
    118  C         15.7370   29.3420   11.3630 C.2    84  ILE84       0.2260
    119  O         14.6980   29.7610   11.9000 O.2    84  ILE84      -0.2867
    120  CB        14.7900   27.1020   10.6570 C.3    84  ILE84       0.0252
    121  CG1       15.1750   25.6670   10.3910 C.3    84  ILE84       0.0019
    122  CG2       14.4340   27.7440    9.3430 C.3    84  ILE84       0.0019
    123  CD1       13.8200   25.0130   10.2100 C.3    84  ILE84       0.0001
@<TRIPOS>BOND
     1    83    81    1
     2    29    28    1
     3    29    30    1
     4    81    80    1
     5    43    42   ar
     6    31    30    2
     7    30    32   am
     8    44    42   ar
     9    42    41    1
    10    80    82    1
    11    80    77    1
    12    32    33    1
    13    22    23    2
    14    22    21    1
    15    26    25   ar
    16    77    76    1
    17    77    78    1
    18    76    74   am
    19    41    38    1
    20    37    34   am
    21    37    38    1
    22    74    75    2
    23    74    73    1
    24    34    35    2
    25    34    33    1
    26    38    39    1
    27    33    36    1
    28    73    72    1
    29    21    24    1
    30    21    20    1
    31    25    24    1
    32    25    27   ar
    33     1     2    1
    34    78    79    2
    35    94    92   ar
    36    94    93   ar
    37     2     3    1
    38     2     5    1
    39    92    90   ar
    40    72    70   am
    41    71    70    2
    42    39    40    2
    43    39    45   am
    44     3     4    2
    45    70    69    1
    46     6     5    1
    47     6     7    1
    48    93    91   ar
    49    45    46    1
    50    90    89   ar
    51    69    68    1
    52    18    17    1
    53    19    17    1
    54     8     7    1
    55     8     9    2
    56    17    16    1
    57    68    62   am
    58    52    50   ar
    59    91    89   ar
    60    89    88    1
    61    51    50   ar
    62    46    49    1
    63    46    47    1
    64    50    49    1
    65    11     9    1
    66    48    47    2
    67    14    15    2
    68    14    13    1
    69     9    10    1
    70   122   120    1
    71    84    85    1
    72    62    61    1
    73    62    63    2
    74    16    13    1
    75    13    12    1
    76    88    85    1
    77   123   121    1
    78    61    64    1
    79    61    60    1
    80    85    86    1
    81   121   120    1
    82    64    66    1
    83    64    65    1
    84   120   117    1
    85   117   118    1
    86   117   116    1
    87   118   119    2
    88   114   113    1
    89    86    87    2
    90    65    67    1
    91    59    57    1
    92   115   113    1
    93   113   110    1
    94   107   108    2
    95   107   106    1
    96    53    54    1
    97    57    54    1
    98    57    58    1
    99   108   102    1
   100   106   103    1
   101   100    99    1
   102   112   111    2
   103    54    55    1
   104   110   111    1
   105   110   109    1
   106   109   104   am
   107    56    55    2
   108   102   103    1
   109   102    97   am
   110   104   103    1
   111   104   105    2
   112    99    96    1
   113    99   101    1
   114    96    97    1
   115    96    95    1
   116    97    98    2
