@<TRIPOS>MOLECULE
tmp/1hxzB00.pdb
 189 181 0 0 0
SMALL
GASTEIGER

@<TRIPOS>ATOM
      1  N         11.3080    8.3820   17.5180 N.3    11  ASN11      -0.1240
      2  CA         9.9430    8.8340   17.7520 C.3    11  ASN11       0.1653
      3  C          9.0070    7.8840   17.0120 C.2    11  ASN11       0.2266
      4  O          9.4630    6.9440   16.3600 O.2    11  ASN11      -0.2867
      5  CB         9.7580   10.2820   17.2750 C.3    11  ASN11       0.1155
      6  CG         9.6120   10.3960   15.7730 C.2    11  ASN11       0.2627
      7  OD1       10.0730    9.5410   15.0210 O.2    11  ASN11      -0.2716
      8  ND2        8.9750   11.4710   15.3270 N.am   11  ASN11      -0.0877
      9  N          7.2250    8.6230   14.5080 N.3    13  LEU13      -0.1231
     10  CA         7.0170    9.0880   13.1440 C.3    13  LEU13       0.1693
     11  C          8.1290    8.7510   12.1510 C.2    13  LEU13       0.2593
     12  O          8.0310    9.0950   10.9750 O.2    13  LEU13      -0.2718
     13  CB         6.7750   10.6010   13.1560 C.3    13  LEU13       0.0284
     14  CG         6.1360   11.2150   11.9090 C.3    13  LEU13       0.0019
     15  CD1        4.8160   10.5150   11.6120 C.3    13  LEU13       0.0001
     16  CD2        5.9120   12.7040   12.1320 C.3    13  LEU13       0.0001
     17  N          9.1800    8.0820   12.6140 N.am   14  GLY14      -0.1942
     18  CA        10.2640    7.7190   11.7160 C.3    14  GLY14       0.2014
     19  C         11.5110    8.5830   11.8100 C.2    14  GLY14       0.2639
     20  O         12.3630    8.5550   10.9160 O.2    14  GLY14      -0.2714
     21  N         11.6250    9.3590   12.8810 N.am   15  SER15      -0.1949
     22  CA        12.7910   10.2100   13.0670 C.3    15  SER15       0.1924
     23  C         13.6970    9.6660   14.1590 C.2    15  SER15       0.2314
     24  O         13.2460    8.9870   15.0800 O.2    15  SER15      -0.2863
     25  CB        12.3670   11.6400   13.4080 C.3    15  SER15       0.2116
     26  OG        11.8780   12.3050   12.2560 O.3    15  SER15      -0.2180
     27  N         19.5430   15.5130   14.6510 N.3    31  TYR31      -0.1241
     28  CA        18.1890   15.0370   14.4180 C.3    31  TYR31       0.1605
     29  C         18.1920   14.6170   12.9520 C.2    31  TYR31       0.2264
     30  O         18.5270   15.4180   12.0800 O.2    31  TYR31      -0.2867
     31  CB        17.1870   16.1740   14.6550 C.3    31  TYR31       0.0534
     32  CG        15.7820   15.7040   14.9520 C.ar   31  TYR31      -0.0201
     33  CD1       14.8850   15.4130   13.9250 C.ar   31  TYR31      -0.0009
     34  CD2       15.3560   15.5280   16.2700 C.ar   31  TYR31      -0.0009
     35  CE1       13.5950   14.9570   14.2050 C.ar   31  TYR31       0.0417
     36  CE2       14.0790   15.0730   16.5600 C.ar   31  TYR31       0.0417
     37  CZ        13.2030   14.7890   15.5270 C.ar   31  TYR31       0.1957
     38  OH        11.9390   14.3320   15.8240 O.3    31  TYR31      -0.2866
     39  N         16.3580   11.9120    9.6530 N.3    33  SER33      -0.1202
     40  CA        15.2330   11.1210    9.1640 C.3    33  SER33       0.2020
     41  C         15.7060    9.7280    8.7620 C.2    33  SER33       0.2618
     42  O         15.0710    8.7240    9.0920 O.2    33  SER33      -0.2717
     43  CB        14.5850   11.8070    7.9560 C.3    33  SER33       0.2103
     44  OG        14.0410   13.0690    8.3110 O.3    33  SER33      -0.2182
     45  N         16.8230    9.6760    8.0460 N.am   34  ALA34      -0.1979
     46  CA        17.3850    8.4080    7.5970 C.3    34  ALA34       0.1597
     47  C         18.8860    8.3690    7.8550 C.2    34  ALA34       0.2287
     48  O         19.5850    9.3630    7.6570 O.2    34  ALA34      -0.2864
     49  CB        17.1040    8.2100    6.1130 C.3    34  ALA34       0.0319
     50  N         22.5070    9.4230    5.4550 N.3    37  ASN37      -0.1240
     51  CA        22.0690   10.4330    4.4980 C.3    37  ASN37       0.1653
     52  C         22.3460   11.8270    5.0450 C.2    37  ASN37       0.2266
     53  O         21.6210   12.3330    5.9030 O.2    37  ASN37      -0.2867
     54  CB        20.5780   10.2580    4.1930 C.3    37  ASN37       0.1155
     55  CG        20.1080   11.1460    3.0560 C.2    37  ASN37       0.2627
     56  OD1       19.8450   12.3330    3.2460 O.2    37  ASN37      -0.2716
     57  ND2       20.0110   10.5750    1.8600 N.am   37  ASN37      -0.0877
     58  N         21.9740   14.7760    3.7380 N.3    39  GLU39      -0.1231
     59  CA        20.9370   15.7720    3.4930 C.3    39  GLU39       0.1699
     60  C         19.7850   15.7850    4.4940 C.2    39  GLU39       0.2592
     61  O         19.0150   16.7470    4.5300 O.2    39  GLU39      -0.2718
     62  CB        20.3640   15.6120    2.0800 C.3    39  GLU39       0.0402
     63  CG        21.3600   15.8900    0.9660 C.3    39  GLU39       0.1161
     64  CD        20.6890   16.0790   -0.3860 C.2    39  GLU39       0.3649
     65  OE1       21.4090   16.2760   -1.3870 O.co2  39  GLU39      -0.2457
     66  OE2       19.4420   16.0350   -0.4490 O.co2  39  GLU39      -0.2457
     67  N         19.6600   14.7360    5.3030 N.am   40  SER40      -0.1952
     68  CA        18.5700   14.6730    6.2730 C.3    40  SER40       0.1924
     69  C         19.0100   14.8940    7.7200 C.2    40  SER40       0.2314
     70  O         18.2100   14.7360    8.6430 O.2    40  SER40      -0.2863
     71  CB        17.8430   13.3280    6.1690 C.3    40  SER40       0.2116
     72  OG        18.6340   12.2750    6.6940 O.3    40  SER40      -0.2180
     73  N         20.2970   17.2920   10.8270 N.3    42  TYR42      -0.1241
     74  CA        20.2440   18.6700   11.3040 C.3    42  TYR42       0.1605
     75  C         20.7900   18.7920   12.7190 C.2    42  TYR42       0.2264
     76  O         20.6450   17.8850   13.5390 O.2    42  TYR42      -0.2867
     77  CB        18.8050   19.2000   11.2780 C.3    42  TYR42       0.0534
     78  CG        18.1820   19.1890    9.9040 C.ar   42  TYR42      -0.0201
     79  CD1       17.6000   18.0290    9.3900 C.ar   42  TYR42      -0.0009
     80  CD2       18.2100   20.3270    9.0990 C.ar   42  TYR42      -0.0009
     81  CE1       17.0630   18.0040    8.1010 C.ar   42  TYR42       0.0417
     82  CE2       17.6760   20.3120    7.8120 C.ar   42  TYR42       0.0417
     83  CZ        17.1070   19.1470    7.3210 C.ar   42  TYR42       0.1957
     84  OH        16.5880   19.1300    6.0450 O.3    42  TYR42      -0.2866
     85  N         15.5400   23.9870   10.7590 N.3    67  TRP67      -0.1241
     86  CA        15.5380   23.1060    9.6020 C.3    67  TRP67       0.1605
     87  C         16.3530   23.5450    8.4030 C.2    67  TRP67       0.2264
     88  O         15.8520   23.6340    7.2800 O.2    67  TRP67      -0.2867
     89  CB        14.0910   22.8170    9.2040 C.3    67  TRP67       0.0550
     90  CG        13.3320   22.1950   10.3380 C.ar   67  TRP67       0.0003
     91  CD1       12.3130   22.7570   11.0560 C.ar   67  TRP67       0.0946
     92  CD2       13.5620   20.9030   10.9120 C.ar   67  TRP67       0.0152
     93  NE1       11.8940   21.8930   12.0420 N.ar   67  TRP67      -0.2442
     94  CE2       12.6420   20.7470   11.9750 C.ar   67  TRP67       0.0810
     95  CE3       14.4560   19.8600   10.6320 C.ar   67  TRP67       0.0012
     96  CZ2       12.5900   19.5900   12.7570 C.ar   67  TRP67       0.0191
     97  CZ3       14.4050   18.7070   11.4120 C.ar   67  TRP67       0.0001
     98  CH2       13.4760   18.5830   12.4610 C.ar   67  TRP67       0.0015
     99  N         22.5650   21.4760    2.7910 N.3    71  TYR71      -0.1227
    100  CA        21.9150   21.0520    1.5530 C.3    71  TYR71       0.1736
    101  C         20.4870   21.5480    1.3580 C.2    71  TYR71       0.2595
    102  O         20.0600   21.7880    0.2290 O.2    71  TYR71      -0.2718
    103  CB        21.8960   19.5240    1.4600 C.3    71  TYR71       0.0548
    104  CG        23.2460   18.8660    1.6090 C.ar   71  TYR71      -0.0200
    105  CD1       23.7770   18.5990    2.8690 C.ar   71  TYR71      -0.0009
    106  CD2       23.9960   18.5100    0.4870 C.ar   71  TYR71      -0.0009
    107  CE1       25.0220   17.9920    3.0120 C.ar   71  TYR71       0.0417
    108  CE2       25.2450   17.9030    0.6180 C.ar   71  TYR71       0.0417
    109  CZ        25.7510   17.6470    1.8840 C.ar   71  TYR71       0.1957
    110  OH        26.9840   17.0510    2.0240 O.3    71  TYR71      -0.2866
    111  N         19.7460   21.6900    2.4510 N.am   72  ARG72      -0.1980
    112  CA        18.3520   22.1110    2.3660 C.3    72  ARG72       0.1597
    113  C         17.9920   23.1590    3.4090 C.2    72  ARG72       0.2287
    114  O         18.6820   23.3120    4.4140 O.2    72  ARG72      -0.2864
    115  CB        17.4440   20.8940    2.5560 C.3    72  ARG72       0.0334
    116  CG        17.7290   19.7490    1.6050 C.3    72  ARG72       0.0492
    117  CD        17.0610   18.4640    2.0640 C.3    72  ARG72       0.2205
    118  NE        17.2450   17.3870    1.0930 N.pl3  72  ARG72      -0.0865
    119  CZ        16.9070   16.1190    1.3010 C.cat  72  ARG72       0.5346
    120  NH1       16.3640   15.7500    2.4530 N.pl3  72  ARG72       0.1354
    121  NH2       17.1070   15.2170    0.3490 N.pl3  72  ARG72       0.1354
    122  N         14.2300   24.6450    5.0830 N.3    74  ALA74      -0.1245
    123  CA        12.7730   24.6910    5.1260 C.3    74  ALA74       0.1562
    124  C         12.2590   25.9780    5.7680 C.2    74  ALA74       0.2260
    125  O         11.0550   26.1200    6.0010 O.2    74  ALA74      -0.2867
    126  CB        12.2360   23.4760    5.8850 C.3    74  ALA74       0.0290
    127  N         12.2500   27.2160    8.7840 N.3    76  SER76      -0.1217
    128  CA        11.4250   26.9690    9.9520 C.3    76  SER76       0.1889
    129  C         12.2710   26.3820   11.0660 C.2    76  SER76       0.2288
    130  O         13.4130   25.9750   10.8490 O.2    76  SER76      -0.2866
    131  CB        10.2830   26.0160    9.5950 C.3    76  SER76       0.2089
    132  OG        10.7710   24.8710    8.9130 O.3    76  SER76      -0.2183
    133  N         11.8110   24.0650   14.9600 N.3    78  THR78      -0.1218
    134  CA        10.9440   23.3570   15.8850 C.3    78  THR78       0.1862
    135  C         11.5920   23.2840   17.2540 C.2    78  THR78       0.2287
    136  O         12.8070   23.0990   17.3630 O.2    78  THR78      -0.2866
    137  CB        10.6710   21.9190   15.3970 C.3    78  THR78       0.1770
    138  OG1        9.9710   21.9660   14.1480 O.3    78  THR78      -0.2211
    139  CG2        9.8280   21.1520   16.4130 C.3    78  THR78       0.0375
    140  N         11.1220   21.3860   21.0510 N.3    80  TRP80      -0.1241
    141  CA        10.4640   20.3190   21.7870 C.3    80  TRP80       0.1605
    142  C         10.6360   20.6360   23.2620 C.2    80  TRP80       0.2264
    143  O         11.7390   20.9600   23.7060 O.2    80  TRP80      -0.2867
    144  CB        11.1300   18.9720   21.5040 C.3    80  TRP80       0.0550
    145  CG        10.8000   18.3550   20.1830 C.ar   80  TRP80       0.0003
    146  CD1        9.8760   17.3760   19.9440 C.ar   80  TRP80       0.0946
    147  CD2       11.4540   18.6030   18.9350 C.ar   80  TRP80       0.0152
    148  NE1        9.9250   16.9900   18.6250 N.ar   80  TRP80      -0.2442
    149  CE2       10.8850   17.7280   17.9830 C.ar   80  TRP80       0.0810
    150  CE3       12.4700   19.4790   18.5290 C.ar   80  TRP80       0.0012
    151  CZ2       11.3020   17.6990   16.6470 C.ar   80  TRP80       0.0191
    152  CZ3       12.8870   19.4500   17.1960 C.ar   80  TRP80       0.0001
    153  CH2       12.3020   18.5640   16.2750 C.ar   80  TRP80       0.0015
    154  N          5.6060   19.9380   21.0140 N.3    96  TRP96      -0.1241
    155  CA         6.4780   20.7610   20.1920 C.3    96  TRP96       0.1605
    156  C          5.7600   21.8860   19.4770 C.2    96  TRP96       0.2264
    157  O          4.5340   21.8700   19.3270 O.2    96  TRP96      -0.2867
    158  CB         7.2310   19.9110   19.1610 C.3    96  TRP96       0.0550
    159  CG         6.3670   19.0080   18.3290 C.ar   96  TRP96       0.0003
    160  CD1        6.1330   17.6760   18.5340 C.ar   96  TRP96       0.0946
    161  CD2        5.6430   19.3650   17.1460 C.ar   96  TRP96       0.0152
    162  NE1        5.3120   17.1790   17.5480 N.ar   96  TRP96      -0.2442
    163  CE2        4.9960   18.1950   16.6840 C.ar   96  TRP96       0.0810
    164  CE3        5.4770   20.5590   16.4310 C.ar   96  TRP96       0.0012
    165  CZ2        4.1950   18.1840   15.5350 C.ar   96  TRP96       0.0191
    166  CZ3        4.6800   20.5470   15.2850 C.ar   96  TRP96       0.0001
    167  CH2        4.0510   19.3660   14.8520 C.ar   96  TRP96       0.0015
    168  N          6.3210   24.2120   15.9230 N.3    98  LEU98      -0.1245
    169  CA         7.0460   24.4040   14.6730 C.3    98  LEU98       0.1561
    170  C          6.6490   25.7580   14.0950 C.2    98  LEU98       0.2260
    171  O          5.5010   25.9590   13.7000 O.2    98  LEU98      -0.2867
    172  CB         6.6930   23.2900   13.6850 C.3    98  LEU98       0.0270
    173  CG         7.4570   23.2050   12.3560 C.3    98  LEU98       0.0019
    174  CD1        6.9860   21.9730   11.6000 C.3    98  LEU98       0.0001
    175  CD2        7.2440   24.4470   11.5220 C.3    98  LEU98       0.0001
    176  N          7.2540   28.6810   11.1950 N.3   100  SER100     -0.1217
    177  CA         7.7950   28.9380    9.8640 C.3   100  SER100      0.1889
    178  C          7.9930   30.4380    9.6790 C.2   100  SER100      0.2288
    179  O          7.2620   31.2460   10.2600 O.2   100  SER100     -0.2866
    180  CB         6.8350   28.4310    8.7810 C.3   100  SER100      0.2089
    181  OG         6.6870   27.0230    8.8220 O.3   100  SER100     -0.2183
    182  N          5.3680   14.5200   20.5220 N.3   116  ASP116     -0.1239
    183  CA         6.1730   13.3600   20.1390 C.3   116  ASP116      0.1674
    184  C          6.5850   12.5990   21.3880 C.2   116  ASP116      0.2266
    185  O          6.8220   13.1940   22.4340 O.2   116  ASP116     -0.2867
    186  CB         7.4650   13.7720   19.4200 C.3   116  ASP116      0.1410
    187  CG         7.2510   14.1380   17.9680 C.2   116  ASP116      0.3668
    188  OD1        6.4420   13.4690   17.2940 O.co2 116  ASP116     -0.2456
    189  OD2        7.9170   15.0830   17.4940 O.co2 116  ASP116     -0.2456
@<TRIPOS>BOND
     1    65    64   ar
     2    66    64   ar
     3    64    63    1
     4   102   101    2
     5   121   119    1
     6   106   108   ar
     7   106   104   ar
     8   108   109   ar
     9    63    62    1
    10   118   119    2
    11   118   117    1
    12   119   120    1
    13   101   100    1
    14   101   111   am
    15   103   100    1
    16   103   104    1
    17   100    99    1
    18   116   117    1
    19   116   115    1
    20   104   105   ar
    21    57    55   am
    22   109   110    1
    23   109   107   ar
    24    62    59    1
    25   112   111    1
    26   112   115    1
    27   112   113    1
    28   105   107   ar
    29    55    56    2
    30    55    54    1
    31   113   114    2
    32    59    58    1
    33    59    60    1
    34    54    51    1
    35    60    61    2
    36    60    67   am
    37    51    52    1
    38    51    50    1
    39    52    53    2
    40   122   123    1
    41   123   124    1
    42   123   126    1
    43    67    68    1
    44   124   125    2
    45    84    83    1
    46    49    46    1
    47    71    68    1
    48    71    72    1
    49    68    69    1
    50    88    87    2
    51    83    82   ar
    52    83    81   ar
    53    46    47    1
    54    46    45    1
    55    48    47    2
    56    69    70    2
    57    82    80   ar
    58    43    44    1
    59    43    40    1
    60    45    41   am
    61    81    79   ar
    62    87    86    1
    63    41    42    2
    64    41    40    1
    65   180   181    1
    66   180   177    1
    67   127   128    1
    68   132   131    1
    69    80    78   ar
    70    40    39    1
    71    89    86    1
    72    89    90    1
    73    79    78   ar
    74   131   128    1
    75    86    85    1
    76   178   177    1
    77   178   179    2
    78   177   176    1
    79    78    77    1
    80   128   129    1
    81    90    92   ar
    82    90    91   ar
    83    95    92   ar
    84    95    97   ar
    85    73    74    1
    86   130   129    2
    87    92    94   ar
    88    20    19    2
    89    12    11    2
    90    91    93   ar
    91    77    74    1
    92    74    75    1
    93    97    98   ar
    94   175   173    1
    95   174   173    1
    96    15    14    1
    97    18    19    1
    98    18    17    1
    99    19    21   am
   100    14    16    1
   101    14    13    1
   102    94    93   ar
   103    94    96   ar
   104    30    29    2
   105    11    17   am
   106    11    10    1
   107    26    25    1
   108   173   172    1
   109    98    96   ar
   110    75    76    2
   111    21    22    1
   112    29    28    1
   113    22    25    1
   114    22    23    1
   115    10    13    1
   116    10     9    1
   117   172   169    1
   118   171   170    2
   119    33    35   ar
   120    33    32   ar
   121   170   169    1
   122   138   137    1
   123    23    24    2
   124    35    37   ar
   125    28    27    1
   126    28    31    1
   127    31    32    1
   128   169   168    1
   129   167   166   ar
   130   167   165   ar
   131    32    34   ar
   132   133   134    1
   133     7     6    2
   134   166   164   ar
   135     8     6   am
   136   137   134    1
   137   137   139    1
   138    37    38    1
   139    37    36   ar
   140   165   163   ar
   141     6     5    1
   142   134   135    1
   143    34    36   ar
   144   153   151   ar
   145   153   152   ar
   146     4     3    2
   147   164   161   ar
   148   151   149   ar
   149   163   161   ar
   150   163   162   ar
   151     3     2    1
   152   161   159   ar
   153   152   150   ar
   154   135   136    2
   155     5     2    1
   156   188   187   ar
   157   189   187   ar
   158     1     2    1
   159   162   160   ar
   160   187   186    1
   161   149   148   ar
   162   149   147   ar
   163   159   160   ar
   164   159   158    1
   165   150   147   ar
   166   148   146   ar
   167   147   145   ar
   168   158   155    1
   169   157   156    2
   170   186   183    1
   171   156   155    1
   172   146   145   ar
   173   183   182    1
   174   183   184    1
   175   145   144    1
   176   155   154    1
   177   140   141    1
   178   184   185    2
   179   144   141    1
   180   141   142    1
   181   142   143    2
