@<TRIPOS>MOLECULE
tmp/1hy2A00.pdb
 174 166 0 0 0
SMALL
GASTEIGER

@<TRIPOS>ATOM
      1  N         26.0760  -11.3870    5.7030 N.3    11  ASN11      -0.1240
      2  CA        25.6970  -10.0040    5.9960 C.3    11  ASN11       0.1653
      3  C         26.6840   -9.0480    5.3360 C.2    11  ASN11       0.2266
      4  O         27.6360   -9.4880    4.6950 O.2    11  ASN11      -0.2867
      5  CB        25.6160   -9.7390    7.5090 C.3    11  ASN11       0.1155
      6  CG        26.9710   -9.6820    8.1880 C.2    11  ASN11       0.2627
      7  OD1       27.0460   -9.4110    9.3870 O.2    11  ASN11      -0.2716
      8  ND2       28.0410   -9.9400    7.4440 N.am   11  ASN11      -0.0877
      9  N         28.9480   -7.3490    6.5820 N.3    13  LEU13      -0.1245
     10  CA        30.2750   -7.3850    7.1910 C.3    13  LEU13       0.1561
     11  C         31.0970   -8.6220    6.8470 C.2    13  LEU13       0.2260
     12  O         32.2430   -8.7400    7.2690 O.2    13  LEU13      -0.2867
     13  CB        30.1660   -7.2630    8.7130 C.3    13  LEU13       0.0270
     14  CG        30.1030   -5.8400    9.2730 C.3    13  LEU13       0.0019
     15  CD1       28.8990   -5.1040    8.7040 C.3    13  LEU13       0.0001
     16  CD2       30.0340   -5.8980   10.7900 C.3    13  LEU13       0.0001
     17  N         30.3030  -11.7720    7.7100 N.3    15  SER15      -0.1217
     18  CA        30.0110  -12.9010    8.5820 C.3    15  SER15       0.1889
     19  C         29.0890  -13.8600    7.8400 C.2    15  SER15       0.2288
     20  O         28.3560  -13.4520    6.9370 O.2    15  SER15      -0.2866
     21  CB        29.3450  -12.4290    9.8770 C.3    15  SER15       0.2089
     22  OG        30.2860  -11.7960   10.7280 O.3    15  SER15      -0.2183
     23  N         27.1830  -19.4590   13.5700 N.3    31  TYR31      -0.1227
     24  CA        27.5180  -18.1130   13.1290 C.3    31  TYR31       0.1736
     25  C         29.0430  -18.0590   13.1090 C.2    31  TYR31       0.2595
     26  O         29.6900  -18.3450   14.1200 O.2    31  TYR31      -0.2718
     27  CB        26.9540  -17.0860   14.1140 C.3    31  TYR31       0.0548
     28  CG        26.7980  -15.6970   13.5330 C.ar   31  TYR31      -0.0200
     29  CD1       27.8690  -14.8050   13.4960 C.ar   31  TYR31      -0.0009
     30  CD2       25.5780  -15.2860   12.9950 C.ar   31  TYR31      -0.0009
     31  CE1       27.7280  -13.5390   12.9370 C.ar   31  TYR31       0.0417
     32  CE2       25.4270  -14.0250   12.4310 C.ar   31  TYR31       0.0417
     33  CZ        26.5060  -13.1580   12.4040 C.ar   31  TYR31       0.1957
     34  OH        26.3580  -11.9190   11.8290 O.3    31  TYR31      -0.2866
     35  N         29.6210  -17.7040   11.9660 N.am   32  GLU32      -0.1965
     36  CA        31.0760  -17.6550   11.8600 C.3    32  GLU32       0.1733
     37  C         31.5880  -16.5160   10.9810 C.2    32  GLU32       0.2617
     38  O         30.8030  -15.7670   10.3930 O.2    32  GLU32      -0.2715
     39  CB        31.5850  -18.9950   11.3260 C.3    32  GLU32       0.0429
     40  CG        31.1350  -19.2940    9.9120 C.3    32  GLU32       0.1163
     41  CD        31.2490  -20.7660    9.5520 C.2    32  GLU32       0.3649
     42  OE1       31.2890  -21.0780    8.3420 O.co2  32  GLU32      -0.2457
     43  OE2       31.2830  -21.6120   10.4720 O.co2  32  GLU32      -0.2457
     44  N         32.9110  -16.3860   10.8970 N.am   33  SER33      -0.1936
     45  CA        33.5260  -15.3310   10.0940 C.3    33  SER33       0.2055
     46  C         33.8170  -15.8040    8.6740 C.2    33  SER33       0.2643
     47  O         33.5310  -16.9470    8.3170 O.2    33  SER33      -0.2714
     48  CB        34.8330  -14.8660   10.7340 C.3    33  SER33       0.2130
     49  OG        35.8270  -15.8710   10.6180 O.3    33  SER33      -0.2179
     50  N         34.3970  -14.9120    7.8750 N.am   34  ALA34      -0.1963
     51  CA        34.7410  -15.2090    6.4870 C.3    34  ALA34       0.1728
     52  C         35.7160  -16.3810    6.3920 C.2    34  ALA34       0.2616
     53  O         35.5120  -17.3080    5.6030 O.2    34  ALA34      -0.2715
     54  CB        35.3480  -13.9730    5.8300 C.3    34  ALA34       0.0334
     55  N         36.7770  -16.3320    7.1930 N.am   35  VAL35      -0.1977
     56  CA        37.7870  -17.3890    7.2010 C.3    35  VAL35       0.1596
     57  C         37.1390  -18.7480    7.4440 C.2    35  VAL35       0.2287
     58  O         37.5540  -19.7580    6.8730 O.2    35  VAL35      -0.2864
     59  CB        38.8550  -17.1290    8.2910 C.3    35  VAL35       0.0276
     60  CG1       38.1860  -16.8540    9.6190 C.3    35  VAL35       0.0022
     61  CG2       39.7790  -18.3240    8.4100 C.3    35  VAL35       0.0022
     62  N         37.0820  -20.5560   10.2810 N.3    37  ASN37      -0.1240
     63  CA        37.8330  -21.4850   11.1230 C.3    37  ASN37       0.1653
     64  C         37.0300  -21.8710   12.3710 C.2    37  ASN37       0.2266
     65  O         36.2000  -21.0970   12.8590 O.2    37  ASN37      -0.2867
     66  CB        39.1920  -20.8870   11.5270 C.3    37  ASN37       0.1155
     67  CG        39.0610  -19.6260   12.3600 C.2    37  ASN37       0.2627
     68  OD1       38.6010  -18.5920   11.8770 O.2    37  ASN37      -0.2716
     69  ND2       39.4680  -19.7050   13.6220 N.am   37  ASN37      -0.0877
     70  N         36.3240  -19.4790   15.1410 N.3    40  SER40      -0.1217
     71  CA        35.4380  -18.3420   14.9240 C.3    40  SER40       0.1889
     72  C         33.9680  -18.7470   14.7610 C.2    40  SER40       0.2288
     73  O         33.1450  -17.9380   14.3340 O.2    40  SER40      -0.2866
     74  CB        35.8930  -17.5380   13.7000 C.3    40  SER40       0.2089
     75  OG        35.7130  -18.2770   12.5030 O.3    40  SER40      -0.2183
     76  N         30.3010  -20.0640   16.3150 N.3    42  TYR42      -0.1241
     77  CA        29.4980  -20.0000   17.5250 C.3    42  TYR42       0.1605
     78  C         28.0920  -20.5370   17.2770 C.2    42  TYR42       0.2264
     79  O         27.5150  -20.3340   16.2040 O.2    42  TYR42      -0.2867
     80  CB        29.3950  -18.5600   18.0350 C.3    42  TYR42       0.0534
     81  CG        30.7210  -17.9270   18.3720 C.ar   42  TYR42      -0.0201
     82  CD1       31.4880  -17.3040   17.3890 C.ar   42  TYR42      -0.0009
     83  CD2       31.2250  -17.9710   19.6740 C.ar   42  TYR42      -0.0009
     84  CE1       32.7270  -16.7390   17.6940 C.ar   42  TYR42       0.0417
     85  CE2       32.4610  -17.4130   19.9880 C.ar   42  TYR42       0.0417
     86  CZ        33.2050  -16.8000   18.9950 C.ar   42  TYR42       0.1957
     87  OH        34.4200  -16.2450   19.3080 O.3    42  TYR42      -0.2866
     88  N         28.6190  -15.2230   22.7110 N.3    67  TRP67      -0.1241
     89  CA        29.9670  -15.2540   22.1640 C.3    67  TRP67       0.1605
     90  C         31.0090  -16.0670   22.9170 C.2    67  TRP67       0.2264
     91  O         32.0770  -15.5650   23.2820 O.2    67  TRP67      -0.2867
     92  CB        30.4590  -13.8240   21.9230 C.3    67  TRP67       0.0550
     93  CG        29.5520  -13.0890   20.9660 C.ar   67  TRP67       0.0003
     94  CD1       28.6100  -12.1480   21.2820 C.ar   67  TRP67       0.0946
     95  CD2       29.4310  -13.3190   19.5560 C.ar   67  TRP67       0.0152
     96  NE1       27.9060  -11.7820   20.1530 N.ar   67  TRP67      -0.2442
     97  CE2       28.3900  -12.4880   19.0820 C.ar   67  TRP67       0.0810
     98  CE3       30.1000  -14.1510   18.6450 C.ar   67  TRP67       0.0012
     99  CZ2       28.0000  -12.4660   17.7370 C.ar   67  TRP67       0.0191
    100  CZ3       29.7110  -14.1270   17.3040 C.ar   67  TRP67       0.0001
    101  CH2       28.6700  -13.2910   16.8660 C.ar   67  TRP67       0.0015
    102  N         37.2820  -19.3830   22.7200 N.3    72  ARG72      -0.1245
    103  CA        37.2490  -17.9780   23.1250 C.3    72  ARG72       0.1563
    104  C         35.9540  -17.6480   23.8620 C.2    72  ARG72       0.2260
    105  O         34.9420  -18.3210   23.6670 O.2    72  ARG72      -0.2867
    106  CB        37.3320  -17.0590   21.8940 C.3    72  ARG72       0.0307
    107  CG        38.4300  -17.3790   20.8890 C.3    72  ARG72       0.0489
    108  CD        38.4260  -16.3540   19.7490 C.3    72  ARG72       0.2205
    109  NE        39.4370  -16.6420   18.7300 N.pl3  72  ARG72      -0.0865
    110  CZ        39.6870  -15.8680   17.6750 C.cat  72  ARG72       0.5346
    111  NH1       39.0040  -14.7440   17.4890 N.pl3  72  ARG72       0.1354
    112  NH2       40.6160  -16.2250   16.7960 N.pl3  72  ARG72       0.1354
    113  N         33.9110  -13.9810   24.8310 N.3    74  ALA74      -0.1245
    114  CA        33.8270  -12.5300   24.8540 C.3    74  ALA74       0.1562
    115  C         32.8470  -11.9880   25.8930 C.2    74  ALA74       0.2260
    116  O         32.5830  -10.7850   25.9330 O.2    74  ALA74      -0.2867
    117  CB        33.4570  -12.0220   23.4620 C.3    74  ALA74       0.0290
    118  N         29.6890  -11.8720   26.1510 N.3    76  SER76      -0.1217
    119  CA        28.6490  -11.0410   25.5730 C.3    76  SER76       0.1889
    120  C         27.7230  -11.9190   24.7590 C.2    76  SER76       0.2288
    121  O         28.0530  -13.0690   24.4540 O.2    76  SER76      -0.2866
    122  CB        29.2730   -9.9640   24.6880 C.3    76  SER76       0.2089
    123  OG        30.1690  -10.5360   23.7550 O.3    76  SER76      -0.2183
    124  N         24.5380  -11.5610   21.5260 N.3    78  THR78      -0.1218
    125  CA        23.8240  -10.7190   20.5830 C.3    78  THR78       0.1862
    126  C         22.5120  -11.3570   20.1710 C.2    78  THR78       0.2287
    127  O         22.4390  -12.5750   20.0160 O.2    78  THR78      -0.2866
    128  CB        24.6540  -10.4900   19.3030 C.3    78  THR78       0.1770
    129  OG1       25.8570   -9.7980   19.6370 O.3    78  THR78      -0.2211
    130  CG2       23.8620   -9.6670   18.2840 C.3    78  THR78       0.0375
    131  N         19.3630  -10.9490   17.2830 N.3    80  TRP80      -0.1241
    132  CA        18.9170  -10.3430   16.0310 C.3    80  TRP80       0.1605
    133  C         17.4080  -10.5260   15.9640 C.2    80  TRP80       0.2264
    134  O         16.8980  -11.6080   16.2360 O.2    80  TRP80      -0.2867
    135  CB        19.5370  -11.0590   14.8280 C.3    80  TRP80       0.0550
    136  CG        20.9840  -10.7380   14.5470 C.ar   80  TRP80       0.0003
    137  CD1       21.4620   -9.8500   13.6250 C.ar   80  TRP80       0.0946
    138  CD2       22.1280  -11.3640   15.1340 C.ar   80  TRP80       0.0152
    139  NE1       22.8320   -9.8940   13.5940 N.ar   80  TRP80      -0.2442
    140  CE2       23.2700  -10.8140   14.5090 C.ar   80  TRP80       0.0810
    141  CE3       22.2990  -12.3430   16.1240 C.ar   80  TRP80       0.0012
    142  CZ2       24.5760  -11.2100   14.8380 C.ar   80  TRP80       0.0191
    143  CZ3       23.6050  -12.7450   16.4570 C.ar   80  TRP80       0.0001
    144  CH2       24.7240  -12.1760   15.8120 C.ar   80  TRP80       0.0015
    145  N         19.8250   -5.5250   15.7110 N.3    96  TRP96      -0.1241
    146  CA        20.3470   -6.3660   16.7730 C.3    96  TRP96       0.1605
    147  C         20.7510   -5.6140   18.0240 C.2    96  TRP96       0.2264
    148  O         20.9570   -4.4040   17.9810 O.2    96  TRP96      -0.2867
    149  CB        21.5500   -7.1630   16.2520 C.3    96  TRP96       0.0550
    150  CG        22.6180   -6.3310   15.5700 C.ar   96  TRP96       0.0003
    151  CD1       22.7810   -6.1450   14.2220 C.ar   96  TRP96       0.0946
    152  CD2       23.6790   -5.5970   16.2030 C.ar   96  TRP96       0.0152
    153  NE1       23.8770   -5.3480   13.9780 N.ar   96  TRP96      -0.2442
    154  CE2       24.4460   -4.9990   15.1760 C.ar   96  TRP96       0.0810
    155  CE3       24.0560   -5.3880   17.5390 C.ar   96  TRP96       0.0012
    156  CZ2       25.5710   -4.2050   15.4420 C.ar   96  TRP96       0.0191
    157  CZ3       25.1760   -4.5990   17.8000 C.ar   96  TRP96       0.0001
    158  CH2       25.9190   -4.0180   16.7550 C.ar   96  TRP96       0.0015
    159  N         23.5570   -6.0240   21.2090 N.3    98  LEU98      -0.1245
    160  CA        24.7320   -6.7180   21.7210 C.3    98  LEU98       0.1561
    161  C         24.9510   -6.2800   23.1650 C.2    98  LEU98       0.2260
    162  O         25.3400   -5.1410   23.4190 O.2    98  LEU98      -0.2867
    163  CB        25.9530   -6.3780   20.8600 C.3    98  LEU98       0.0270
    164  CG        27.3670   -6.7480   21.3320 C.3    98  LEU98       0.0019
    165  CD1       27.4620   -8.2020   21.7710 C.3    98  LEU98       0.0001
    166  CD2       28.3240   -6.4850   20.1750 C.3    98  LEU98       0.0001
    167  N         21.5460   -5.3910   10.5470 N.3   116  ASP116     -0.1239
    168  CA        22.2290   -6.2370    9.5720 C.3   116  ASP116      0.1674
    169  C         21.2230   -6.6390    8.5120 C.2   116  ASP116      0.2266
    170  O         20.0560   -6.8490    8.8180 O.2   116  ASP116     -0.2867
    171  CB        22.7460   -7.5350   10.2050 C.3   116  ASP116      0.1410
    172  CG        24.1090   -7.3890   10.8350 C.2   116  ASP116      0.3668
    173  OD1       24.8780   -6.5060   10.4000 O.co2 116  ASP116     -0.2456
    174  OD2       24.4210   -8.1770   11.7530 O.co2 116  ASP116     -0.2456
@<TRIPOS>BOND
     1     4     3    2
     2     3     2    1
     3    53    52    2
     4     1     2    1
     5    54    51    1
     6     2     5    1
     7    52    51    1
     8    52    55   am
     9    51    50    1
    10     9    10    1
    11    11    10    1
    12    11    12    2
    13    58    57    2
    14    20    19    2
    15    10    13    1
    16    55    56    1
    17    56    57    1
    18    56    59    1
    19     8     6   am
    20     5     6    1
    21    17    18    1
    22    19    18    1
    23    50    46   am
    24     6     7    2
    25    59    61    1
    26    59    60    1
    27    47    46    2
    28    42    41   ar
    29   169   170    2
    30   169   168    1
    31    18    21    1
    32    46    45    1
    33    15    14    1
    34    13    14    1
    35    14    16    1
    36    41    40    1
    37    41    43   ar
    38   168   171    1
    39   168   167    1
    40    21    22    1
    41    40    39    1
    42    45    48    1
    43    45    44    1
    44   171   172    1
    45    62    63    1
    46    38    37    2
    47   173   172   ar
    48    49    48    1
    49   172   174   ar
    50    44    37   am
    51    37    36    1
    52    63    66    1
    53    63    64    1
    54    39    36    1
    55    66    67    1
    56    34    33    1
    57    36    35    1
    58    68    67    2
    59    35    25   am
    60    67    69   am
    61    64    65    2
    62    33    32   ar
    63    33    31   ar
    64    32    30   ar
    65    75    74    1
    66    31    29   ar
    67    30    28   ar
    68    25    24    1
    69    25    26    2
    70    24    23    1
    71    24    27    1
    72    29    28   ar
    73    28    27    1
    74   139   137   ar
    75   139   140   ar
    76   137   136   ar
    77    74    71    1
    78   153   151   ar
    79   153   154   ar
    80   151   150   ar
    81    73    72    2
    82   140   142   ar
    83   140   138   ar
    84   136   135    1
    85   136   138   ar
    86    72    71    1
    87   135   132    1
    88   142   144   ar
    89    71    70    1
    90   138   141   ar
    91   154   156   ar
    92   154   152   ar
    93   156   158   ar
    94   150   152   ar
    95   150   149    1
    96   145   146    1
    97   144   143   ar
    98   133   132    1
    99   133   134    2
   100   132   131    1
   101   141   143   ar
   102   152   155   ar
   103    79    78    2
   104   149   146    1
   105    76    77    1
   106   158   157   ar
   107   146   147    1
   108   112   110    1
   109   101   100   ar
   110   101    99   ar
   111    78    77    1
   112   100    98   ar
   113    82    84   ar
   114    82    81   ar
   115   111   110    1
   116    77    80    1
   117   155   157   ar
   118   110   109    2
   119    84    86   ar
   120    99    97   ar
   121   148   147    2
   122    80    81    1
   123   130   128    1
   124    81    83   ar
   125    98    95   ar
   126   109   108    1
   127    86    87    1
   128    86    85   ar
   129    97    95   ar
   130    97    96   ar
   131   128   129    1
   132   128   125    1
   133    95    93   ar
   134    83    85   ar
   135   108   107    1
   136   127   126    2
   137    96    94   ar
   138   126   125    1
   139   166   164    1
   140   125   124    1
   141   163   164    1
   142   163   160    1
   143   107   106    1
   144    93    94   ar
   145    93    92    1
   146   159   160    1
   147   164   165    1
   148   160   161    1
   149   106   103    1
   150    92    89    1
   151    89    88    1
   152    89    90    1
   153   102   103    1
   154    90    91    2
   155   103   104    1
   156   161   162    2
   157   117   114    1
   158   105   104    2
   159   123   122    1
   160   121   120    2
   161   122   119    1
   162   120   119    1
   163   113   114    1
   164   114   115    1
   165   119   118    1
   166   115   116    2
