@<TRIPOS>MOLECULE
tmp/1hy3B00.pdb
 244 239 0 0 0
SMALL
GASTEIGER

@<TRIPOS>ATOM
      1  N        -19.6810  -14.6170   64.6360 N.3    44  PRO44      -0.2102
      2  CA       -20.4110  -14.5150   63.3680 C.3    44  PRO44       0.1504
      3  C        -19.7380  -15.1850   62.1690 C.2    44  PRO44       0.2576
      4  O        -18.5170  -15.1320   62.0170 O.2    44  PRO44      -0.2718
      5  CB       -20.5470  -13.0080   63.1740 C.3    44  PRO44       0.0282
      6  CG       -20.7360  -12.5210   64.5770 C.3    44  PRO44       0.0208
      7  CD       -19.6890  -13.3260   65.3540 C.3    44  PRO44       0.0893
      8  N        -20.5610  -15.8290   61.3430 N.am   45  LYS45      -0.1966
      9  CA       -20.1470  -16.4930   60.1070 C.3    45  LYS45       0.1728
     10  C        -19.1940  -17.6770   60.2250 C.2    45  LYS45       0.2617
     11  O        -18.4700  -17.9920   59.2820 O.2    45  LYS45      -0.2715
     12  CB       -19.5600  -15.4550   59.1400 C.3    45  LYS45       0.0311
     13  CG       -20.4130  -14.1940   58.9900 C.3    45  LYS45       0.0038
     14  CD       -21.8860  -14.5130   58.7110 C.3    45  LYS45       0.0206
     15  CE       -22.0930  -15.3230   57.4400 C.3    45  LYS45       0.1093
     16  NZ       -21.9190  -14.5240   56.1830 N.3    45  LYS45      -0.1314
     17  N        -19.2100  -18.3480   61.3720 N.am   46  SER46      -0.1936
     18  CA       -18.3390  -19.5000   61.5780 C.3    46  SER46       0.2055
     19  C        -19.0220  -20.8380   61.2790 C.2    46  SER46       0.2644
     20  O        -18.4210  -21.8980   61.4680 O.2    46  SER46      -0.2714
     21  CB       -17.8240  -19.5010   63.0150 C.3    46  SER46       0.2130
     22  OG       -17.1820  -18.2760   63.3110 O.3    46  SER46      -0.2179
     23  N        -20.2700  -20.7930   60.8140 N.am   47  GLY47      -0.1939
     24  CA       -20.9820  -22.0230   60.5040 C.3    47  GLY47       0.2014
     25  C        -22.1170  -22.3770   61.4510 C.2    47  GLY47       0.2640
     26  O        -22.5210  -23.5370   61.5320 O.2    47  GLY47      -0.2714
     27  N        -22.6280  -21.3700   62.1540 N.am   48  THR48      -0.1936
     28  CA       -23.7260  -21.5220   63.1130 C.3    48  THR48       0.2028
     29  C        -24.9160  -22.3160   62.5550 C.2    48  THR48       0.2643
     30  O        -25.4250  -23.2310   63.1950 O.2    48  THR48      -0.2714
     31  CB       -24.2810  -20.1370   63.5510 C.3    48  THR48       0.1808
     32  OG1      -23.1980  -19.2400   63.8340 O.3    48  THR48      -0.2208
     33  CG2      -25.1490  -20.2740   64.7950 C.3    48  THR48       0.0379
     34  N        -25.3610  -21.9430   61.3630 N.am   49  THR49      -0.1936
     35  CA       -26.5150  -22.5820   60.7420 C.3    49  THR49       0.2028
     36  C        -26.2640  -24.0620   60.4860 C.2    49  THR49       0.2642
     37  O        -27.1610  -24.8930   60.6440 O.2    49  THR49      -0.2714
     38  CB       -26.8720  -21.8680   59.4250 C.3    49  THR49       0.1808
     39  OG1      -26.9410  -20.4550   59.6570 O.3    49  THR49      -0.2208
     40  CG2      -28.2150  -22.3520   58.8980 C.3    49  THR49       0.0379
     41  N        -25.0350  -24.3910   60.1040 N.am   50  TRP50      -0.1973
     42  CA       -24.6630  -25.7760   59.8410 C.3    50  TRP50       0.1640
     43  C        -24.7640  -26.6360   61.0990 C.2    50  TRP50       0.2290
     44  O        -25.4890  -27.6340   61.1190 O.2    50  TRP50      -0.2864
     45  CB       -23.2420  -25.8230   59.2960 C.3    50  TRP50       0.0576
     46  CG       -22.8120  -27.1410   58.7310 C.ar   50  TRP50       0.0006
     47  CD1      -23.5650  -28.2760   58.5940 C.ar   50  TRP50       0.0946
     48  CD2      -21.5320  -27.4370   58.1650 C.ar   50  TRP50       0.0152
     49  NE1      -22.8280  -29.2590   57.9700 N.ar   50  TRP50      -0.2442
     50  CE2      -21.5780  -28.7680   57.6950 C.ar   50  TRP50       0.0810
     51  CE3      -20.3470  -26.7010   58.0080 C.ar   50  TRP50       0.0012
     52  CZ2      -20.4830  -29.3810   57.0760 C.ar   50  TRP50       0.0191
     53  CZ3      -19.2590  -27.3110   57.3930 C.ar   50  TRP50       0.0001
     54  CH2      -19.3370  -28.6380   56.9340 C.ar   50  TRP50       0.0015
     55  N        -32.5050  -17.0610   68.2740 N.3    78  PHE78      -0.1241
     56  CA       -31.2680  -16.2860   68.3230 C.3    78  PHE78       0.1605
     57  C        -31.3820  -15.4710   69.6130 C.2    78  PHE78       0.2264
     58  O        -31.9640  -14.3930   69.6260 O.2    78  PHE78      -0.2867
     59  CB       -31.2210  -15.3640   67.0990 C.3    78  PHE78       0.0534
     60  CG       -29.9020  -14.6610   66.8890 C.ar   78  PHE78      -0.0203
     61  CD1      -28.9650  -14.5560   67.9130 C.ar   78  PHE78      -0.0042
     62  CD2      -29.6280  -14.0520   65.6640 C.ar   78  PHE78      -0.0042
     63  CE1      -27.7760  -13.8510   67.7220 C.ar   78  PHE78      -0.0003
     64  CE2      -28.4460  -13.3470   65.4620 C.ar   78  PHE78      -0.0003
     65  CZ       -27.5160  -13.2440   66.4920 C.ar   78  PHE78      -0.0000
     66  N        -29.3470  -20.2520   70.1010 N.3   103  LYS103     -0.1245
     67  CA       -28.2710  -19.7470   69.2450 C.3   103  LYS103      0.1561
     68  C        -27.7650  -18.4160   69.8080 C.2   103  LYS103      0.2260
     69  O        -28.5600  -17.5700   70.2170 O.2   103  LYS103     -0.2867
     70  CB       -28.7640  -19.5130   67.8100 C.3   103  LYS103      0.0271
     71  CG       -27.8980  -18.5020   67.0280 C.3   103  LYS103      0.0035
     72  CD       -28.4170  -18.2380   65.6180 C.3   103  LYS103      0.0206
     73  CE       -27.5980  -17.1560   64.9220 C.3   103  LYS103      0.1093
     74  NZ       -28.1240  -16.8490   63.5530 N.3   103  LYS103     -0.1314
     75  N        -24.0450  -15.5010   69.6460 N.3   105  HIS105     -0.1241
     76  CA       -22.7220  -15.1720   69.1300 C.3   105  HIS105      0.1621
     77  C        -21.9500  -14.4780   70.2460 C.2   105  HIS105      0.2264
     78  O        -20.8890  -13.9180   70.0170 O.2   105  HIS105     -0.2867
     79  CB       -22.7910  -14.2070   67.9390 C.3   105  HIS105      0.0745
     80  CG       -23.4290  -14.7760   66.7110 C.ar  105  HIS105      0.0817
     81  ND1      -23.0440  -15.9790   66.1540 N.ar  105  HIS105     -0.2268
     82  CD2      -24.3570  -14.2550   65.8730 C.ar  105  HIS105      0.1154
     83  CE1      -23.7010  -16.1680   65.0230 C.ar  105  HIS105      0.1986
     84  NE2      -24.5060  -15.1350   64.8290 N.ar  105  HIS105     -0.2212
     85  N        -13.9830  -21.1220   63.4360 N.3   127  ARG127     -0.1245
     86  CA       -13.5950  -21.1790   62.0160 C.3   127  ARG127      0.1563
     87  C        -12.3650  -20.2850   61.8440 C.2   127  ARG127      0.2260
     88  O        -12.2150  -19.2970   62.5690 O.2   127  ARG127     -0.2867
     89  CB       -14.7440  -20.6860   61.1300 C.3   127  ARG127      0.0307
     90  CG       -14.5960  -20.9800   59.6310 C.3   127  ARG127      0.0489
     91  CD       -15.7970  -20.4410   58.8510 C.3   127  ARG127      0.2205
     92  NE       -15.7200  -20.7430   57.4200 N.pl3 127  ARG127     -0.0865
     93  CZ       -16.5900  -20.3080   56.5160 C.cat 127  ARG127      0.5346
     94  NH1      -17.6100  -19.5440   56.8800 N.pl3 127  ARG127      0.1354
     95  NH2      -16.4460  -20.6410   55.2420 N.pl3 127  ARG127      0.1354
     96  N        -11.2580  -16.8130   56.7620 N.3   131  ASP131     -0.1239
     97  CA       -12.5040  -17.2040   56.0980 C.3   131  ASP131      0.1674
     98  C        -13.6880  -16.5430   56.7820 C.2   131  ASP131      0.2266
     99  O        -14.6910  -16.2150   56.1410 O.2   131  ASP131     -0.2867
    100  CB       -12.6700  -18.7250   56.0990 C.3   131  ASP131      0.1410
    101  CG       -11.7890  -19.4040   55.0620 C.2   131  ASP131      0.3668
    102  OD1      -11.3840  -18.7150   54.0960 O.co2 131  ASP131     -0.2456
    103  OD2      -11.5170  -20.6220   55.1990 O.co2 131  ASP131     -0.2456
    104  N        -16.4760  -14.0480   54.9680 N.3   135  SER135     -0.1217
    105  CA       -17.8990  -14.2990   55.1130 C.3   135  SER135      0.1889
    106  C        -18.6320  -13.1880   55.8580 C.2   135  SER135      0.2288
    107  O        -19.7800  -12.8690   55.5380 O.2   135  SER135     -0.2866
    108  CB       -18.1170  -15.6400   55.8230 C.3   135  SER135      0.2089
    109  OG       -19.4930  -15.9590   55.9040 O.3   135  SER135     -0.2183
    110  N        -21.6960  -10.4650   54.8070 N.3   139  PHE139     -0.1241
    111  CA       -22.8610  -10.3530   55.6910 C.3   139  PHE139      0.1605
    112  C        -23.1800   -8.8690   55.8620 C.2   139  PHE139      0.2264
    113  O        -24.3460   -8.4710   55.9410 O.2   139  PHE139     -0.2867
    114  CB       -22.5530  -10.9650   57.0610 C.3   139  PHE139      0.0534
    115  CG       -23.7560  -11.0910   57.9660 C.ar  139  PHE139     -0.0203
    116  CD1      -24.7490  -12.0310   57.7010 C.ar  139  PHE139     -0.0042
    117  CD2      -23.8710  -10.3020   59.1100 C.ar  139  PHE139     -0.0042
    118  CE1      -25.8320  -12.1900   58.5600 C.ar  139  PHE139     -0.0003
    119  CE2      -24.9570  -10.4540   59.9810 C.ar  139  PHE139     -0.0003
    120  CZ       -25.9380  -11.4020   59.7020 C.ar  139  PHE139     -0.0000
    121  N        -15.0020  -25.6200   62.1940 N.3   190  TYR190     -0.1241
    122  CA       -15.6910  -25.6520   60.9030 C.3   190  TYR190      0.1605
    123  C        -14.8840  -26.5410   59.9510 C.2   190  TYR190      0.2264
    124  O        -15.4420  -27.3490   59.1930 O.2   190  TYR190     -0.2867
    125  CB       -15.7610  -24.2230   60.3390 C.3   190  TYR190      0.0534
    126  CG       -16.3830  -24.0930   58.9640 C.ar  190  TYR190     -0.0201
    127  CD1      -17.7480  -23.8550   58.8120 C.ar  190  TYR190     -0.0009
    128  CD2      -15.6030  -24.2100   57.8120 C.ar  190  TYR190     -0.0009
    129  CE1      -18.3200  -23.7370   57.5410 C.ar  190  TYR190      0.0417
    130  CE2      -16.1630  -24.0970   56.5480 C.ar  190  TYR190      0.0417
    131  CZ       -17.5180  -23.8620   56.4230 C.ar  190  TYR190      0.1957
    132  OH       -18.0710  -23.7700   55.1740 O.3   190  TYR190     -0.2866
    133  N        -15.7950  -29.8700   57.7130 N.3   194  LYS194     -0.1245
    134  CA       -15.5040  -29.9280   56.2800 C.3   194  LYS194      0.1561
    135  C        -14.6680  -31.1510   55.9140 C.2   194  LYS194      0.2260
    136  O        -14.9680  -31.8490   54.9490 O.2   194  LYS194     -0.2867
    137  CB       -14.7440  -28.6750   55.8260 C.3   194  LYS194      0.0271
    138  CG       -15.5690  -27.3940   55.7300 C.3   194  LYS194      0.0035
    139  CD       -16.6050  -27.4620   54.6130 C.3   194  LYS194      0.0206
    140  CE       -15.9660  -27.7200   53.2570 C.3   194  LYS194      0.1093
    141  NZ       -16.9780  -27.7040   52.1660 N.3   194  LYS194     -0.1314
    142  N        -27.6270  -32.2030   55.9020 N.3   224  THR224     -0.1203
    143  CA       -26.8510  -31.0120   56.2380 C.3   224  THR224      0.1994
    144  C        -25.7130  -30.6590   55.2880 C.2   224  THR224      0.2619
    145  O        -24.8720  -29.8140   55.6110 O.2   224  THR224     -0.2717
    146  CB       -26.2980  -31.0930   57.6740 C.3   224  THR224      0.1784
    147  OG1      -25.3390  -32.1510   57.7660 O.3   224  THR224     -0.2211
    148  CG2      -27.4440  -31.3550   58.6660 C.3   224  THR224      0.0376
    149  N        -25.6820  -31.2830   54.1150 N.am  225  SER225     -0.1937
    150  CA       -24.6390  -30.9560   53.1480 C.3   225  SER225      0.2055
    151  C        -24.9390  -29.5450   52.6410 C.2   225  SER225      0.2643
    152  O        -26.0820  -29.0840   52.7100 O.2   225  SER225     -0.2714
    153  CB       -24.6290  -31.9600   51.9840 C.3   225  SER225      0.2130
    154  OG       -25.8280  -31.9100   51.2320 O.3   225  SER225     -0.2179
    155  N        -23.9180  -28.8580   52.1390 N.am  226  PHE226     -0.1973
    156  CA       -24.0820  -27.4980   51.6500 C.3   226  PHE226      0.1639
    157  C        -25.1430  -27.3850   50.5570 C.2   226  PHE226      0.2290
    158  O        -25.9640  -26.4750   50.5850 O.2   226  PHE226     -0.2864
    159  CB       -22.7500  -26.9620   51.1180 C.3   226  PHE226      0.0560
    160  CG       -22.8210  -25.5420   50.6320 C.ar  226  PHE226     -0.0200
    161  CD1      -22.8770  -24.4840   51.5350 C.ar  226  PHE226     -0.0042
    162  CD2      -22.8420  -25.2630   49.2710 C.ar  226  PHE226     -0.0042
    163  CE1      -22.9530  -23.1640   51.0870 C.ar  226  PHE226     -0.0003
    164  CE2      -22.9180  -23.9530   48.8110 C.ar  226  PHE226     -0.0003
    165  CZ       -22.9730  -22.8980   49.7190 C.ar  226  PHE226     -0.0000
    166  N        -28.7540  -27.8360   52.2010 N.3   229  MET229     -0.1245
    167  CA       -29.1240  -26.6920   53.0220 C.3   229  MET229      0.1570
    168  C        -29.2370  -25.4000   52.2270 C.2   229  MET229      0.2261
    169  O        -30.0050  -24.5080   52.5900 O.2   229  MET229     -0.2867
    170  CB       -28.1310  -26.5160   54.1730 C.3   229  MET229      0.0387
    171  CG       -28.2370  -27.6030   55.2210 C.3   229  MET229      0.0595
    172  SD       -27.1720  -27.3130   56.6460 S.3   229  MET229     -0.1393
    173  CE       -28.0700  -26.0200   57.4710 C.3   229  MET229      0.0692
    174  N        -32.3640  -19.1040   54.9190 N.3   237  TYR237     -0.1241
    175  CA       -32.8710  -17.7640   55.2190 C.3   237  TYR237      0.1605
    176  C        -33.5840  -17.0220   54.0790 C.2   237  TYR237      0.2264
    177  O        -33.8090  -15.8110   54.1740 O.2   237  TYR237     -0.2867
    178  CB       -31.7310  -16.8790   55.7580 C.3   237  TYR237      0.0534
    179  CG       -31.3210  -17.2050   57.1820 C.ar  237  TYR237     -0.0201
    180  CD1      -30.4310  -18.2460   57.4590 C.ar  237  TYR237     -0.0009
    181  CD2      -31.8630  -16.5020   58.2550 C.ar  237  TYR237     -0.0009
    182  CE1      -30.0960  -18.5800   58.7780 C.ar  237  TYR237      0.0417
    183  CE2      -31.5370  -16.8260   59.5720 C.ar  237  TYR237      0.0417
    184  CZ       -30.6560  -17.8660   59.8270 C.ar  237  TYR237      0.1957
    185  OH       -30.3600  -18.1900   61.1330 O.3   237  TYR237     -0.2866
    186  N        -26.8960  -16.2390   51.4550 N.3   252  PHE252     -0.1227
    187  CA       -26.4370  -16.5830   52.7980 C.3   252  PHE252      0.1736
    188  C        -25.5440  -17.8200   52.7110 C.2   252  PHE252      0.2595
    189  O        -24.4550  -17.8590   53.2890 O.2   252  PHE252     -0.2718
    190  CB       -27.6250  -16.8590   53.7190 C.3   252  PHE252      0.0547
    191  CG       -27.2340  -17.0730   55.1490 C.ar  252  PHE252     -0.0202
    192  CD1      -26.7510  -16.0160   55.9170 C.ar  252  PHE252     -0.0042
    193  CD2      -27.3280  -18.3340   55.7270 C.ar  252  PHE252     -0.0042
    194  CE1      -26.3650  -16.2150   57.2410 C.ar  252  PHE252     -0.0003
    195  CE2      -26.9440  -18.5410   57.0480 C.ar  252  PHE252     -0.0003
    196  CZ       -26.4620  -17.4800   57.8070 C.ar  252  PHE252     -0.0000
    197  N        -26.0270  -18.8380   52.0090 N.am  253  MET253     -0.1965
    198  CA       -25.2500  -20.0490   51.7930 C.3   253  MET253      0.1736
    199  C        -24.4400  -19.6580   50.5620 C.2   253  MET253      0.2616
    200  O        -24.8020  -19.9780   49.4260 O.2   253  MET253     -0.2715
    201  CB       -26.1720  -21.2340   51.4980 C.3   253  MET253      0.0427
    202  CG       -27.0080  -21.6850   52.6970 C.3   253  MET253      0.0599
    203  SD       -25.9940  -22.3650   54.0360 S.3   253  MET253     -0.1393
    204  CE       -27.1430  -22.3700   55.3890 C.3   253  MET253      0.0692
    205  N        -23.3510  -18.9370   50.8190 N.am  254  ARG254     -0.1963
    206  CA       -22.4670  -18.3980   49.7930 C.3   254  ARG254      0.1729
    207  C        -21.6110  -19.4210   49.0460 C.2   254  ARG254      0.2616
    208  O        -21.8650  -19.6920   47.8710 O.2   254  ARG254     -0.2715
    209  CB       -21.5830  -17.3200   50.4340 C.3   254  ARG254      0.0348
    210  CG       -20.9510  -16.3250   49.4780 C.3   254  ARG254      0.0492
    211  CD       -20.2150  -15.2500   50.2760 C.3   254  ARG254      0.2205
    212  NE       -19.1590  -15.8440   51.0900 N.pl3 254  ARG254     -0.0865
    213  CZ       -17.9480  -16.1460   50.6350 C.cat 254  ARG254      0.5346
    214  NH1      -17.6340  -15.8950   49.3690 N.pl3 254  ARG254      0.1354
    215  NH2      -17.0580  -16.7230   51.4360 N.pl3 254  ARG254      0.1354
    216  N        -20.5960  -19.9750   49.7080 N.am  255  LYS255     -0.1963
    217  CA       -19.7220  -20.9690   49.0710 C.3   255  LYS255      0.1728
    218  C        -19.5870  -22.2450   49.8910 C.2   255  LYS255      0.2617
    219  O        -19.5200  -23.3380   49.3390 O.2   255  LYS255     -0.2715
    220  CB       -18.3170  -20.4070   48.8300 C.3   255  LYS255      0.0311
    221  CG       -18.2070  -19.4030   47.7060 C.3   255  LYS255      0.0038
    222  CD       -16.7420  -19.1340   47.3890 C.3   255  LYS255      0.0206
    223  CE       -16.5820  -18.0700   46.3130 C.3   255  LYS255      0.1093
    224  NZ       -15.1430  -17.8540   45.9630 N.3   255  LYS255     -0.1314
    225  N        -19.5180  -22.0910   51.2080 N.am  256  GLY256     -0.1940
    226  CA       -19.4120  -23.2340   52.0920 C.3   256  GLY256      0.2014
    227  C        -18.1240  -24.0180   51.9810 C.2   256  GLY256      0.2638
    228  O        -18.1340  -25.2400   52.1090 O.2   256  GLY256     -0.2714
    229  N        -17.0160  -23.3230   51.7450 N.am  257  ILE257     -0.1977
    230  CA       -15.7240  -23.9830   51.6250 C.3   257  ILE257      0.1596
    231  C        -14.7350  -23.4260   52.6340 C.2   257  ILE257      0.2287
    232  O        -15.0320  -22.4810   53.3640 O.2   257  ILE257     -0.2864
    233  CB       -15.0970  -23.7820   50.2250 C.3   257  ILE257      0.0276
    234  CG1      -14.8440  -22.2920   49.9760 C.3   257  ILE257      0.0022
    235  CG2      -16.0200  -24.3530   49.1450 C.3   257  ILE257      0.0022
    236  CD1      -14.0080  -22.0040   48.7410 C.3   257  ILE257      0.0001
    237  N        -11.5860  -19.7100   51.2410 N.3   260  ASP260     -0.1239
    238  CA       -12.0190  -18.6610   50.3240 C.3   260  ASP260      0.1674
    239  C        -11.1730  -17.4100   50.5380 C.2   260  ASP260      0.2266
    240  O        -11.1480  -16.5150   49.6880 O.2   260  ASP260     -0.2867
    241  CB       -13.4950  -18.2990   50.4990 C.3   260  ASP260      0.1410
    242  CG       -14.0400  -17.5320   49.3090 C.2   260  ASP260      0.3668
    243  OD1      -14.9800  -16.7290   49.4810 O.co2 260  ASP260     -0.2456
    244  OD2      -13.5300  -17.7520   48.1880 O.co2 260  ASP260     -0.2456
@<TRIPOS>BOND
     1   224   223    1
     2   223   222    1
     3   222   221    1
     4   221   220    1
     5   208   207    2
     6   244   242   ar
     7   236   234    1
     8   164   162   ar
     9   164   165   ar
    10   220   217    1
    11   207   216   am
    12   207   206    1
    13   217   216    1
    14   217   218    1
    15   235   233    1
    16   162   160   ar
    17   242   243   ar
    18   242   241    1
    19   219   218    2
    20   214   213    1
    21   200   199    2
    22   210   211    1
    23   210   209    1
    24   240   239    2
    25   165   163   ar
    26   206   209    1
    27   206   205    1
    28   218   225   am
    29   234   233    1
    30   233   230    1
    31   211   212    1
    32   238   241    1
    33   238   239    1
    34   238   237    1
    35   157   158    2
    36   157   156    1
    37   199   205   am
    38   199   198    1
    39   160   159    1
    40   160   161   ar
    41   213   212    2
    42   213   215    1
    43   163   161   ar
    44   159   156    1
    45   225   226    1
    46   154   153    1
    47   186   187    1
    48   201   198    1
    49   201   202    1
    50   230   229    1
    51   230   231    1
    52   156   155    1
    53   229   227   am
    54   198   197    1
    55   227   226    1
    56   227   228    2
    57   153   150    1
    58   197   188   am
    59   155   151   am
    60   141   140    1
    61   166   167    1
    62   168   169    2
    63   168   167    1
    64   231   232    2
    65   151   152    2
    66   151   150    1
    67   202   203    1
    68   188   187    1
    69   188   189    2
    70   187   190    1
    71   167   170    1
    72   150   149    1
    73   140   139    1
    74   190   191    1
    75   203   204    1
    76   176   177    2
    77   176   175    1
    78   102   101   ar
    79   149   144   am
    80   170   171    1
    81   139   138    1
    82   110   111    1
    83   174   175    1
    84   136   135    2
    85   104   105    1
    86   101   103   ar
    87   101   100    1
    88   105   108    1
    89   105   106    1
    90   191   193   ar
    91   191   192   ar
    92   132   131    1
    93   175   178    1
    94   171   172    1
    95    95    93    1
    96   144   145    2
    97   144   143    1
    98   107   106    2
    99   111   112    1
   100   111   114    1
   101   193   195   ar
   102   138   137    1
   103   178   179    1
   104   108   109    1
   105   137   134    1
   106   112   113    2
   107   142   143    1
   108   135   134    1
   109   192   194   ar
   110    97   100    1
   111    97    96    1
   112    97    98    1
   113    99    98    2
   114    16    15    1
   115   143   146    1
   116   134   133    1
   117   131   130   ar
   118   131   129   ar
   119    93    94    1
   120    93    92    2
   121   130   128   ar
   122   172   173    1
   123    54    52   ar
   124    54    53   ar
   125   195   196   ar
   126   114   115    1
   127    52    50   ar
   128   179   180   ar
   129   179   181   ar
   130   194   196   ar
   131    53    51   ar
   132    92    91    1
   133    15    14    1
   134   180   182   ar
   135   129   127   ar
   136   146   147    1
   137   146   148    1
   138    50    49   ar
   139    50    48   ar
   140   116   115   ar
   141   116   118   ar
   142   128   126   ar
   143   115   117   ar
   144    49    47   ar
   145    51    48   ar
   146    48    46   ar
   147   181   183   ar
   148   118   120   ar
   149    47    46   ar
   150    14    13    1
   151    46    45    1
   152   182   184   ar
   153   127   126   ar
   154    91    90    1
   155    40    38    1
   156   126   125    1
   157    13    12    1
   158   117   119   ar
   159    12     9    1
   160   124   123    2
   161    11    10    2
   162    45    42    1
   163    38    39    1
   164    38    35    1
   165   183   184   ar
   166    90    89    1
   167   120   119   ar
   168   184   185    1
   169    42    41    1
   170    42    43    1
   171   123   122    1
   172    41    36   am
   173     9    10    1
   174     9     8    1
   175    10    17   am
   176   125   122    1
   177    36    37    2
   178    36    35    1
   179    24    23    1
   180    24    25    1
   181    35    34    1
   182    23    19   am
   183   122   121    1
   184    43    44    2
   185    89    86    1
   186    19    20    2
   187    19    18    1
   188     8     3   am
   189    34    29   am
   190    17    18    1
   191    25    26    2
   192    25    27   am
   193    18    21    1
   194    87    86    1
   195    87    88    2
   196    86    85    1
   197     4     3    2
   198    27    28    1
   199     3     2    1
   200    29    28    1
   201    29    30    2
   202    21    22    1
   203    28    31    1
   204     5     2    1
   205     5     6    1
   206     2     1    1
   207    31    32    1
   208    31    33    1
   209    74    73    1
   210     6     7    1
   211     1     7    1
   212    84    83   ar
   213    84    82   ar
   214    73    72    1
   215    83    81   ar
   216    64    62   ar
   217    64    65   ar
   218    72    71    1
   219    62    60   ar
   220    82    80   ar
   221    81    80   ar
   222    65    63   ar
   223    80    79    1
   224    60    59    1
   225    60    61   ar
   226    71    70    1
   227    59    56    1
   228    63    61   ar
   229    70    67    1
   230    79    76    1
   231    55    56    1
   232    56    57    1
   233    76    75    1
   234    76    77    1
   235    67    68    1
   236    67    66    1
   237    57    58    2
   238    68    69    2
   239    78    77    2
