@<TRIPOS>MOLECULE
tmp/1hy7B00.pdb
 211 212 0 0 0
SMALL
GASTEIGER

@<TRIPOS>ATOM
      1  N        -10.8240   56.4610   54.6120 N.3     4  PHE4       -0.1241
      2  CA       -10.7860   56.6360   53.1530 C.3     4  PHE4        0.1605
      3  C        -11.8380   57.6540   52.7130 C.2     4  PHE4        0.2264
      4  O        -12.8060   57.8860   53.4270 O.2     4  PHE4       -0.2867
      5  CB       -11.1000   55.3240   52.4630 C.3     4  PHE4        0.0534
      6  CG       -10.0140   54.2910   52.5910 C.ar    4  PHE4       -0.0203
      7  CD1      -10.0440   53.3760   53.6400 C.ar    4  PHE4       -0.0042
      8  CD2       -8.9960   54.2100   51.6570 C.ar    4  PHE4       -0.0042
      9  CE1       -9.0650   52.4080   53.7760 C.ar    4  PHE4       -0.0003
     10  CE2       -8.0000   53.2490   51.7780 C.ar    4  PHE4       -0.0003
     11  CZ        -8.0400   52.3340   52.8490 C.ar    4  PHE4       -0.0000
     12  N         -2.8540   46.9610   40.4460 N.3    73  TYR73      -0.1241
     13  CA        -1.6670   47.3990   41.1380 C.3    73  TYR73       0.1605
     14  C         -0.6860   46.2700   41.3040 C.2    73  TYR73       0.2264
     15  O         -0.7240   45.5420   42.2720 O.2    73  TYR73      -0.2867
     16  CB        -2.1240   47.9150   42.5240 C.3    73  TYR73       0.0534
     17  CG        -3.1840   48.9990   42.4080 C.ar   73  TYR73      -0.0201
     18  CD1       -4.4810   48.7740   42.7820 C.ar   73  TYR73      -0.0009
     19  CD2       -2.8660   50.2650   41.8660 C.ar   73  TYR73      -0.0009
     20  CE1       -5.4580   49.7760   42.6540 C.ar   73  TYR73       0.0417
     21  CE2       -3.8270   51.2620   41.7260 C.ar   73  TYR73       0.0417
     22  CZ        -5.1080   51.0230   42.1330 C.ar   73  TYR73       0.1957
     23  OH        -6.0450   52.0370   41.9750 O.3    73  TYR73      -0.2866
     24  N         10.2030   47.0650   49.5350 N.3    80  ASN80      -0.1225
     25  CA         9.2830   48.1330   49.2090 C.3    80  ASN80       0.1785
     26  C          7.8570   47.7310   49.5770 C.2    80  ASN80       0.2597
     27  O          7.6360   47.3810   50.7330 O.2    80  ASN80      -0.2718
     28  CB         9.4730   48.5600   47.7460 C.3    80  ASN80       0.1169
     29  CG        10.8720   49.1410   47.5060 C.2    80  ASN80       0.2627
     30  OD1       11.2740   50.0720   48.1840 O.2    80  ASN80      -0.2716
     31  ND2       11.5970   48.5770   46.5660 N.am   80  ASN80      -0.0877
     32  N          6.8990   47.7580   48.6440 N.am   81  VAL81      -0.1966
     33  CA         5.5250   47.4530   49.0760 C.3    81  VAL81       0.1727
     34  C          5.3940   45.9890   49.5110 C.2    81  VAL81       0.2616
     35  O          5.8010   45.0740   48.8060 O.2    81  VAL81      -0.2715
     36  CB         4.5070   47.7630   47.9740 C.3    81  VAL81       0.0290
     37  CG1        3.1240   47.2340   48.3680 C.3    81  VAL81       0.0023
     38  CG2        4.4240   49.2780   47.6890 C.3    81  VAL81       0.0023
     39  N          4.8320   45.7720   50.6970 N.am   82  LEU82      -0.1963
     40  CA         4.7490   44.4220   51.2490 C.3    82  LEU82       0.1728
     41  C          3.4090   43.7420   50.9840 C.2    82  LEU82       0.2616
     42  O          3.3050   42.5150   50.9340 O.2    82  LEU82      -0.2715
     43  CB         4.9600   44.5010   52.7840 C.3    82  LEU82       0.0311
     44  CG         6.2170   45.2540   53.2540 C.3    82  LEU82       0.0022
     45  CD1        6.1700   45.4470   54.7610 C.3    82  LEU82       0.0001
     46  CD2        7.4890   44.5160   52.8410 C.3    82  LEU82       0.0001
     47  N          2.3920   44.5910   50.8770 N.am   83  ALA83      -0.1963
     48  CA         1.0040   44.1070   50.8020 C.3    83  ALA83       0.1728
     49  C          0.0990   45.2830   50.4480 C.2    83  ALA83       0.2616
     50  O          0.4940   46.4430   50.5040 O.2    83  ALA83      -0.2715
     51  CB         0.6130   43.5200   52.1690 C.3    83  ALA83       0.0334
     52  N         -1.1290   44.9800   50.0560 N.am   84  HIS84      -0.1959
     53  CA        -2.1030   46.0300   49.8920 C.3    84  HIS84       0.1787
     54  C         -3.5050   45.5000   50.0920 C.2    84  HIS84       0.2620
     55  O         -3.7480   44.3170   49.9860 O.2    84  HIS84      -0.2715
     56  CB        -1.9790   46.8120   48.5560 C.3    84  HIS84       0.0785
     57  CG        -2.1080   45.9840   47.3060 C.ar   84  HIS84       0.0821
     58  ND1       -1.3220   46.2390   46.1970 N.ar   84  HIS84      -0.2267
     59  CD2       -2.8760   44.9060   46.9790 C.ar   84  HIS84       0.1154
     60  CE1       -1.6430   45.3870   45.2290 C.ar   84  HIS84       0.1986
     61  NE2       -2.5980   44.5880   45.6610 N.ar   84  HIS84      -0.2212
     62  N         -4.4210   46.4150   50.4270 N.am   85  ALA85      -0.1963
     63  CA        -5.7950   46.0200   50.6800 C.3    85  ALA85       0.1728
     64  C         -6.7230   47.1220   50.2390 C.2    85  ALA85       0.2616
     65  O         -6.3260   48.2740   50.0550 O.2    85  ALA85      -0.2715
     66  CB        -6.0120   45.6520   52.1770 C.3    85  ALA85       0.0334
     67  N         -7.9580   46.7260   50.0270 N.am   86  TYR86      -0.1974
     68  CA        -8.9300   47.6520   49.4910 C.3    86  TYR86       0.1639
     69  C         -9.9490   48.0750   50.5550 C.2    86  TYR86       0.2290
     70  O        -10.3500   47.2520   51.4080 O.2    86  TYR86      -0.2864
     71  CB        -9.6290   46.9550   48.3010 C.3    86  TYR86       0.0560
     72  CG        -8.7350   46.7090   47.1360 C.ar   86  TYR86      -0.0198
     73  CD1       -7.9380   45.5750   47.0710 C.ar   86  TYR86      -0.0009
     74  CD2       -8.6830   47.6220   46.0650 C.ar   86  TYR86      -0.0009
     75  CE1       -7.0870   45.3410   46.0200 C.ar   86  TYR86       0.0417
     76  CE2       -7.8480   47.3790   44.9750 C.ar   86  TYR86       0.0417
     77  CZ        -7.0620   46.2320   44.9420 C.ar   86  TYR86       0.1957
     78  OH        -6.2500   45.9820   43.8260 O.3    86  TYR86      -0.2866
     79  N          1.5290   40.8190   61.7050 N.3   115  LEU115     -0.1231
     80  CA         1.4930   42.2730   61.8510 C.3   115  LEU115      0.1693
     81  C          1.0450   42.9330   60.5470 C.2   115  LEU115      0.2591
     82  O          0.2170   43.8400   60.5530 O.2   115  LEU115     -0.2718
     83  CB         2.8520   42.8390   62.2530 C.3   115  LEU115      0.0284
     84  CG         3.3030   42.5320   63.6810 C.3   115  LEU115      0.0019
     85  CD1        4.6910   43.0750   63.8210 C.3   115  LEU115      0.0001
     86  CD2        2.4120   43.2500   64.6580 C.3   115  LEU115      0.0001
     87  N          1.5750   42.4560   59.4210 N.am  116  VAL116     -0.1980
     88  CA         1.1410   43.0300   58.1560 C.3   116  VAL116      0.1595
     89  C         -0.3340   42.7330   57.8930 C.2   116  VAL116      0.2287
     90  O         -1.0780   43.6180   57.3960 O.2   116  VAL116     -0.2864
     91  CB         1.9920   42.5530   56.9830 C.3   116  VAL116      0.0276
     92  CG1        1.4680   43.2160   55.6990 C.3   116  VAL116      0.0022
     93  CG2        3.4310   43.0040   57.2200 C.3   116  VAL116      0.0022
     94  N         -2.4770   45.1000   59.9440 N.3   119  HIS119     -0.1226
     95  CA        -2.4770   46.4120   59.2780 C.3   119  HIS119      0.1752
     96  C         -3.3960   46.4330   58.0460 C.2   119  HIS119      0.2595
     97  O         -4.1820   47.3840   57.8550 O.2   119  HIS119     -0.2718
     98  CB        -1.0280   46.7450   58.8560 C.3   119  HIS119      0.0759
     99  CG        -0.8670   48.0630   58.1490 C.ar  119  HIS119      0.0818
    100  ND1       -0.4920   49.2150   58.8160 N.ar  119  HIS119     -0.2268
    101  CD2       -0.9830   48.4150   56.8380 C.ar  119  HIS119      0.1154
    102  CE1       -0.4060   50.2140   57.9640 C.ar  119  HIS119      0.1986
    103  NE2       -0.6890   49.7550   56.7620 N.ar  119  HIS119     -0.2212
    104  N         -3.2500   45.4440   57.1760 N.am  120  GLU120     -0.1979
    105  CA        -4.0400   45.4040   55.9520 C.3   120  GLU120      0.1602
    106  C         -5.5150   45.2220   56.2640 C.2   120  GLU120      0.2287
    107  O         -6.3580   45.8110   55.5700 O.2   120  GLU120     -0.2864
    108  CB        -3.5860   44.2520   55.0630 C.3   120  GLU120      0.0415
    109  CG        -2.1520   44.4120   54.5720 C.3   120  GLU120      0.1163
    110  CD        -1.9530   45.7100   53.8090 C.2   120  GLU120      0.3649
    111  OE1       -2.9050   46.2100   53.1660 O.co2 120  GLU120     -0.2457
    112  OE2       -0.8060   46.2200   53.8420 O.co2 120  GLU120     -0.2457
    113  N         -7.0890   48.4160   56.7750 N.3   123  HIS123     -0.1241
    114  CA        -7.5230   49.0520   55.5330 C.3   123  HIS123      0.1621
    115  C         -8.8080   48.4450   55.0070 C.2   123  HIS123      0.2264
    116  O         -9.7490   49.1700   54.5970 O.2   123  HIS123     -0.2867
    117  CB        -6.4820   48.8720   54.4670 C.3   123  HIS123      0.0745
    118  CG        -5.2240   49.5590   54.7960 C.ar  123  HIS123      0.0817
    119  ND1       -5.1680   50.9180   55.0050 N.ar  123  HIS123     -0.2268
    120  CD2       -3.9740   49.0760   55.0150 C.ar  123  HIS123      0.1154
    121  CE1       -3.9030   51.2460   55.2830 C.ar  123  HIS123      0.1986
    122  NE2       -3.1690   50.1470   55.3100 N.ar  123  HIS123     -0.2212
    123  N         -3.9810   55.5490   56.7210 N.3   129  HIS129     -0.1241
    124  CA        -2.7600   55.6920   57.5380 C.3   129  HIS129      0.1621
    125  C         -2.8050   56.7100   58.6710 C.2   129  HIS129      0.2264
    126  O         -3.4060   57.7770   58.5450 O.2   129  HIS129     -0.2867
    127  CB        -1.5390   55.9500   56.6430 C.3   129  HIS129      0.0745
    128  CG        -1.1780   54.7930   55.7710 C.ar  129  HIS129      0.0817
    129  ND1       -0.6350   54.9420   54.5110 N.ar  129  HIS129     -0.2268
    130  CD2       -1.2870   53.4550   55.9790 C.ar  129  HIS129      0.1154
    131  CE1       -0.4520   53.7500   53.9700 C.ar  129  HIS129      0.1986
    132  NE2       -0.8380   52.8330   54.8400 N.ar  129  HIS129     -0.2212
    133  N          3.1400   57.2410   65.4800 N.3   133  THR133     -0.1203
    134  CA         4.1430   56.1770   65.2640 C.3   133  THR133      0.1994
    135  C          3.9200   54.8570   66.0170 C.2   133  THR133      0.2618
    136  O          4.5090   53.8140   65.6830 O.2   133  THR133     -0.2717
    137  CB         5.5900   56.6920   65.5280 C.3   133  THR133      0.1784
    138  OG1        5.5840   57.5930   66.6390 O.3   133  THR133     -0.2211
    139  CG2        6.0800   57.5660   64.3680 C.3   133  THR133      0.0376
    140  N          3.0930   54.8690   67.0480 N.am  134  GLU134     -0.1965
    141  CA         2.9130   53.6230   67.7540 C.3   134  GLU134      0.1733
    142  C          1.7040   52.9070   67.1930 C.2   134  GLU134      0.2616
    143  O          1.4420   51.8010   67.6010 O.2   134  GLU134     -0.2715
    144  CB         2.7390   53.8200   69.2480 C.3   134  GLU134      0.0429
    145  CG         1.6330   54.8100   69.5650 C.3   134  GLU134      0.1163
    146  CD         1.4500   55.0130   71.0520 C.2   134  GLU134      0.3649
    147  OE1        2.4450   54.8730   71.7870 O.co2 134  GLU134     -0.2457
    148  OE2        0.3200   55.3070   71.4890 O.co2 134  GLU134     -0.2457
    149  N          0.9920   53.5400   66.2700 N.am  135  ALA135     -0.1963
    150  CA        -0.2190   52.9380   65.6930 C.3   135  ALA135      0.1728
    151  C          0.1030   51.7930   64.7460 C.2   135  ALA135      0.2616
    152  O          1.1060   51.8030   63.9960 O.2   135  ALA135     -0.2715
    153  CB        -1.0540   53.9530   64.9750 C.3   135  ALA135      0.0334
    154  N         -0.7490   50.7830   64.8230 N.am  136  LEU136     -0.1977
    155  CA        -0.7010   49.7120   63.8540 C.3   136  LEU136      0.1596
    156  C         -0.8820   50.2990   62.4420 C.2   136  LEU136      0.2287
    157  O         -0.2710   49.7960   61.4730 O.2   136  LEU136     -0.2864
    158  CB        -1.7870   48.6950   64.1710 C.3   136  LEU136      0.0297
    159  CG        -1.9720   47.6080   63.0980 C.3   136  LEU136      0.0022
    160  CD1       -0.7470   46.7090   62.9270 C.3   136  LEU136      0.0001
    161  CD2       -3.1710   46.7430   63.4090 C.3   136  LEU136      0.0001
    162  N          0.1270   53.1420   61.3100 N.3   138  TYR138     -0.1228
    163  CA         1.1760   54.0240   60.8170 C.3   138  TYR138      0.1721
    164  C          1.6680   53.4590   59.4830 C.2   138  TYR138      0.2437
    165  O          1.6990   52.2420   59.3080 O.2   138  TYR138     -0.2733
    166  CB         2.2840   54.0320   61.8490 C.3   138  TYR138      0.0547
    167  CG         3.3970   55.0010   61.5550 C.ar  138  TYR138     -0.0200
    168  CD1        3.1530   56.3590   61.4610 C.ar  138  TYR138     -0.0009
    169  CD2        4.6850   54.5420   61.3710 C.ar  138  TYR138     -0.0009
    170  CE1        4.1810   57.2460   61.1780 C.ar  138  TYR138      0.0417
    171  CE2        5.7150   55.4100   61.0910 C.ar  138  TYR138      0.0417
    172  CZ         5.4550   56.7580   60.9940 C.ar  138  TYR138      0.1957
    173  OH         6.4850   57.6330   60.7100 O.3   138  TYR138     -0.2866
    174  N          2.1000   54.2940   58.5330 N.am  139  PRO139     -0.2718
    175  CA         2.4560   53.7870   57.2150 C.3   139  PRO139      0.1535
    176  C          3.8130   53.1140   57.0860 C.2   139  PRO139      0.2598
    177  O          4.1520   52.7520   55.9780 O.2   139  PRO139     -0.2715
    178  CB         2.4260   55.0670   56.3660 C.3   139  PRO139      0.0310
    179  CG         3.0290   56.0300   57.2920 C.3   139  PRO139      0.0237
    180  CD         2.2260   55.7660   58.5760 C.3   139  PRO139      0.0939
    181  N          4.5640   52.9440   58.1670 N.am  140  LEU140     -0.1964
    182  CA         5.8610   52.2550   58.0670 C.3   140  LEU140      0.1728
    183  C          5.8800   51.0060   58.9170 C.2   140  LEU140      0.2616
    184  O          5.5320   51.0710   60.0960 O.2   140  LEU140     -0.2715
    185  CB         7.0000   53.1430   58.5390 C.3   140  LEU140      0.0311
    186  CG         7.2760   54.3590   57.6920 C.3   140  LEU140      0.0022
    187  CD1        8.3580   55.1910   58.3850 C.3   140  LEU140      0.0001
    188  CD2        7.7120   53.9290   56.2890 C.3   140  LEU140      0.0001
    189  N          6.3450   49.9010   58.3340 N.am  141  TYR141     -0.1974
    190  CA         6.3860   48.5890   59.0170 C.3   141  TYR141      0.1639
    191  C          7.2380   48.5700   60.2910 C.2   141  TYR141      0.2290
    192  O          6.7240   48.2460   61.3750 O.2   141  TYR141     -0.2864
    193  CB         6.8450   47.4940   58.0360 C.3   141  TYR141      0.0560
    194  CG         7.0470   46.1320   58.6700 C.ar  141  TYR141     -0.0198
    195  CD1        5.9690   45.3800   59.0710 C.ar  141  TYR141     -0.0009
    196  CD2        8.3180   45.6000   58.8460 C.ar  141  TYR141     -0.0009
    197  CE1        6.1300   44.1580   59.6540 C.ar  141  TYR141      0.0417
    198  CE2        8.5040   44.3630   59.4350 C.ar  141  TYR141      0.0417
    199  CZ         7.4060   43.6440   59.8420 C.ar  141  TYR141      0.1957
    200  OH         7.6200   42.4210   60.4140 O.3   141  TYR141     -0.2866
    201  N          2.4950   43.1890   71.7000 N.3   148  PHE148     -0.1241
    202  CA         1.5930   43.7970   70.7160 C.3   148  PHE148      0.1605
    203  C          0.1600   44.0860   71.1620 C.2   148  PHE148      0.2264
    204  O         -0.5840   43.2060   71.5910 O.2   148  PHE148     -0.2867
    205  CB         1.5260   43.0740   69.3620 C.3   148  PHE148      0.0534
    206  CG         0.5600   43.7440   68.4140 C.ar  148  PHE148     -0.0203
    207  CD1        0.9630   44.8410   67.6800 C.ar  148  PHE148     -0.0042
    208  CD2       -0.7800   43.3760   68.3840 C.ar  148  PHE148     -0.0042
    209  CE1        0.0490   45.5350   66.8680 C.ar  148  PHE148     -0.0003
    210  CE2       -1.6880   44.0710   67.5800 C.ar  148  PHE148     -0.0003
    211  CZ        -1.2540   45.1390   66.8340 C.ar  148  PHE148     -0.0000
@<TRIPOS>BOND
     1    12    13    1
     2    13    14    1
     3    13    16    1
     4    14    15    2
     5    21    19   ar
     6    21    22   ar
     7    19    17   ar
     8    23    22    1
     9    22    20   ar
    10    17    16    1
    11    17    18   ar
    12    20    18   ar
    13    78    77    1
    14    77    76   ar
    15    77    75   ar
    16    76    74   ar
    17    60    61   ar
    18    60    58   ar
    19    61    59   ar
    20    75    73   ar
    21    74    72   ar
    22    58    57   ar
    23    31    29   am
    24    59    57   ar
    25    73    72   ar
    26    72    71    1
    27    57    56    1
    28    29    28    1
    29    29    30    2
    30    38    36    1
    31    28    25    1
    32    36    37    1
    33    36    33    1
    34    71    68    1
    35    56    53    1
    36    32    33    1
    37    32    26   am
    38    35    34    2
    39    33    34    1
    40    25    24    1
    41    25    26    1
    42    68    67    1
    43    68    69    1
    44    34    39   am
    45    26    27    2
    46    53    52    1
    47    53    54    1
    48    55    54    2
    49    67    64   am
    50    65    64    2
    51    52    49   am
    52    54    62   am
    53    64    63    1
    54    62    63    1
    55    49    50    2
    56    49    48    1
    57    69    70    2
    58    63    66    1
    59    39    40    1
    60    48    47    1
    61    48    51    1
    62    47    41   am
    63    42    41    2
    64    41    40    1
    65    40    43    1
    66     8    10   ar
    67     8     6   ar
    68    10    11   ar
    69     5     6    1
    70     5     2    1
    71     6     7   ar
    72     3     2    1
    73     3     4    2
    74    43    44    1
    75    46    44    1
    76    11     9   ar
    77     2     1    1
    78   111   110   ar
    79    44    45    1
    80     7     9   ar
    81   110   112   ar
    82   110   109    1
    83   131   129   ar
    84   131   132   ar
    85   117   118    1
    86   117   114    1
    87   129   128   ar
    88   109   108    1
    89   116   115    2
    90   118   119   ar
    91   118   120   ar
    92   132   130   ar
    93   119   121   ar
    94   115   114    1
    95   120   122   ar
    96   108   105    1
    97   121   122   ar
    98   114   113    1
    99   107   106    2
   100    92    91    1
   101   128   130   ar
   102   128   127    1
   103   105   106    1
   104   105   104    1
   105   177   176    2
   106   188   186    1
   107   178   175    1
   108   178   179    1
   109   127   124    1
   110   123   124    1
   111   103   101   ar
   112   103   102   ar
   113   101    99   ar
   114    91    93    1
   115    91    88    1
   116   176   175    1
   117   176   181   am
   118   104    96   am
   119   175   174    1
   120   179   180    1
   121    90    89    2
   122   124   125    1
   123   186   187    1
   124   186   185    1
   125    97    96    2
   126    89    88    1
   127   102   100   ar
   128   193   194    1
   129   193   190    1
   130    96    95    1
   131   182   181    1
   132   182   185    1
   133   182   183    1
   134    99   100   ar
   135    99    98    1
   136    88    87    1
   137   189   183   am
   138   189   190    1
   139   174   180    1
   140   174   164   am
   141   126   125    2
   142   194   196   ar
   143   194   195   ar
   144   196   198   ar
   145    98    95    1
   146   183   184    2
   147   190   191    1
   148   195   197   ar
   149    95    94    1
   150   165   164    2
   151    87    81   am
   152   198   199   ar
   153   164   163    1
   154   197   199   ar
   155   199   200    1
   156   191   192    2
   157    81    82    2
   158    81    80    1
   159   173   172    1
   160   163   162    1
   161   163   166    1
   162   172   171   ar
   163   172   170   ar
   164   171   169   ar
   165   170   168   ar
   166   169   167   ar
   167   168   167   ar
   168   157   156    2
   169   167   166    1
   170    79    80    1
   171    80    83    1
   172    83    84    1
   173   156   155    1
   174   160   159    1
   175   159   161    1
   176   159   158    1
   177    84    85    1
   178    84    86    1
   179   155   158    1
   180   155   154    1
   181   152   151    2
   182   139   137    1
   183   151   154   am
   184   151   150    1
   185   153   150    1
   186   134   133    1
   187   134   137    1
   188   134   135    1
   189   137   138    1
   190   136   135    2
   191   150   149    1
   192   135   140   am
   193   149   142   am
   194   211   209   ar
   195   211   210   ar
   196   209   207   ar
   197   140   141    1
   198   142   143    2
   199   142   141    1
   200   210   208   ar
   201   207   206   ar
   202   141   144    1
   203   208   206   ar
   204   206   205    1
   205   144   145    1
   206   205   202    1
   207   145   146    1
   208   202   203    1
   209   202   201    1
   210   146   148   ar
   211   146   147   ar
   212   203   204    2
