@<TRIPOS>MOLECULE
tmp/1hybA00.pdb
 126 118 0 0 0
SMALL
GASTEIGER

@<TRIPOS>ATOM
      1  N         23.1010   22.3210   37.7980 N.3     6  VAL6       -0.1231
      2  CA        24.5230   22.0260   37.6470 C.3     6  VAL6        0.1692
      3  C         25.0700   21.4820   38.9490 C.2     6  VAL6        0.2593
      4  O         24.7990   22.0350   40.0150 O.2     6  VAL6       -0.2718
      5  CB        25.3700   23.2680   37.3460 C.3     6  VAL6        0.0266
      6  CG1       26.8150   22.8130   37.0410 C.3     6  VAL6        0.0020
      7  CG2       24.7770   24.0530   36.1850 C.3     6  VAL6        0.0020
      8  N         25.8740   20.4350   38.8480 N.am    7  GLY7       -0.1942
      9  CA        26.4790   19.8430   40.0320 C.3     7  GLY7        0.2014
     10  C         27.6400   18.9360   39.6530 C.2     7  GLY7        0.2639
     11  O         27.6950   18.4300   38.5350 O.2     7  GLY7       -0.2714
     12  N         28.5720   18.7210   40.5760 N.am    8  ARG8       -0.1963
     13  CA        29.7110   17.8500   40.2880 C.3     8  ARG8        0.1729
     14  C         29.3160   16.3740   40.3720 C.2     8  ARG8        0.2616
     15  O         29.8860   15.5170   39.6680 O.2     8  ARG8       -0.2715
     16  CB        30.8710   18.1700   41.2530 C.3     8  ARG8        0.0348
     17  CG        31.7460   19.3410   40.7690 C.3     8  ARG8        0.0492
     18  CD        32.7170   19.9320   41.8160 C.3     8  ARG8        0.2205
     19  NE        33.2490   18.9560   42.7740 N.pl3   8  ARG8       -0.0865
     20  CZ        32.7170   18.7530   43.9810 C.cat   8  ARG8        0.5346
     21  NH1       31.6580   19.4550   44.3560 N.pl3   8  ARG8        0.1354
     22  NH2       33.2330   17.8550   44.8120 N.pl3   8  ARG8        0.1354
     23  N         28.3330   16.0840   41.2300 N.am    9  MET9       -0.1977
     24  CA        27.8410   14.7130   41.4080 C.3     9  MET9        0.1605
     25  C         28.9900   13.7600   41.7790 C.2     9  MET9        0.2287
     26  O         29.2040   12.7550   41.1110 O.2     9  MET9       -0.2864
     27  CB        27.1920   14.2270   40.1100 C.3     9  MET9        0.0413
     28  CG        26.3630   15.2800   39.3990 C.3     9  MET9        0.0598
     29  SD        25.0290   15.8630   40.4300 S.3     9  MET9       -0.1393
     30  CE        23.9300   16.5660   39.2200 C.3     9  MET9        0.0692
     31  N         29.1630   19.2460   36.3260 N.3    35  GLY35      -0.1210
     32  CA        30.2590   20.1940   36.3690 C.3    35  GLY35       0.1956
     33  C         31.6060   19.5370   36.5900 C.2    35  GLY35       0.2612
     34  O         31.6700   18.3560   36.9310 O.2    35  GLY35      -0.2717
     35  N         32.6770   20.3100   36.3980 N.am   36  SER36      -0.1952
     36  CA        34.0500   19.8240   36.5650 C.3    36  SER36       0.1924
     37  C         34.2480   18.4830   35.8910 C.2    36  SER36       0.2314
     38  O         34.8380   17.5580   36.4560 O.2    36  SER36      -0.2863
     39  CB        34.4030   19.7150   38.0420 C.3    36  SER36       0.2116
     40  OG        34.2880   20.9890   38.6570 O.3    36  SER36      -0.2180
     41  N         38.4770   15.2890   46.2240 N.3    44  ARG44      -0.1245
     42  CA        37.2450   16.0370   46.0870 C.3    44  ARG44       0.1563
     43  C         36.4580   15.6250   44.8460 C.2    44  ARG44       0.2260
     44  O         35.2400   15.7910   44.7760 O.2    44  ARG44      -0.2867
     45  CB        37.5870   17.5260   46.0540 C.3    44  ARG44       0.0307
     46  CG        36.4310   18.4660   45.7920 C.3    44  ARG44       0.0489
     47  CD        36.9330   19.9140   45.7060 C.3    44  ARG44       0.2205
     48  NE        35.8880   20.8380   45.2630 N.pl3  44  ARG44      -0.0865
     49  CZ        34.8000   21.1420   45.9710 C.cat  44  ARG44       0.5346
     50  NH1       34.6030   20.6020   47.1710 N.pl3  44  ARG44       0.1354
     51  NH2       33.9010   21.9800   45.4750 N.pl3  44  ARG44       0.1354
     52  N         35.2770   22.6900   33.3170 N.3    77  ASP77      -0.1225
     53  CA        35.3340   24.0110   33.9410 C.3    77  ASP77       0.1805
     54  C         36.2070   24.8920   33.0440 C.2    77  ASP77       0.2597
     55  O         36.9000   24.3910   32.1530 O.2    77  ASP77      -0.2718
     56  CB        35.9840   23.9660   35.3360 C.3    77  ASP77       0.1424
     57  CG        35.1880   23.1380   36.3510 C.2    77  ASP77       0.3668
     58  OD1       33.9390   23.0700   36.2460 O.co2  77  ASP77      -0.2456
     59  OD2       35.8240   22.5720   37.2780 O.co2  77  ASP77      -0.2456
     60  N         36.1630   26.2020   33.2640 N.am   78  ILE78      -0.1980
     61  CA        37.0060   27.1300   32.4890 C.3    78  ILE78       0.1595
     62  C         37.5780   28.0980   33.5280 C.2    78  ILE78       0.2287
     63  O         36.9840   28.2740   34.5990 O.2    78  ILE78      -0.2864
     64  CB        36.1910   27.9150   31.4210 C.3    78  ILE78       0.0276
     65  CG1       35.0640   28.7040   32.0860 C.3    78  ILE78       0.0022
     66  CG2       35.6290   26.9520   30.3930 C.3    78  ILE78       0.0022
     67  CD1       34.3760   29.7050   31.1330 C.3    78  ILE78       0.0001
     68  N         35.4500   32.8740   35.2190 N.3    81  ASN81      -0.1240
     69  CA        34.0640   32.7820   35.7050 C.3    81  ASN81       0.1653
     70  C         33.1280   33.6310   34.8530 C.2    81  ASN81       0.2266
     71  O         31.9570   33.2820   34.6540 O.2    81  ASN81      -0.2867
     72  CB        33.9520   33.2670   37.1620 C.3    81  ASN81       0.1155
     73  CG        34.4400   32.2390   38.1590 C.2    81  ASN81       0.2627
     74  OD1       34.2850   31.0390   37.9340 O.2    81  ASN81      -0.2716
     75  ND2       35.0170   32.7010   39.2740 N.am   81  ASN81      -0.0877
     76  N         31.6770   31.5690   32.0780 N.3    84  TRP84      -0.1241
     77  CA        31.1290   30.2530   32.3330 C.3    84  TRP84       0.1605
     78  C         29.6630   30.0540   31.9370 C.2    84  TRP84       0.2264
     79  O         29.3020   29.0090   31.4350 O.2    84  TRP84      -0.2867
     80  CB        31.3730   29.8630   33.7910 C.3    84  TRP84       0.0550
     81  CG        30.9170   28.4790   34.0960 C.ar   84  TRP84       0.0003
     82  CD1       31.4910   27.3100   33.7000 C.ar   84  TRP84       0.0946
     83  CD2       29.7870   28.1290   34.8930 C.ar   84  TRP84       0.0152
     84  NE1       30.7910   26.2470   34.2140 N.ar   84  TRP84      -0.2442
     85  CE2       29.7380   26.7260   34.9510 C.ar   84  TRP84       0.0810
     86  CE3       28.8110   28.8750   35.5720 C.ar   84  TRP84       0.0012
     87  CZ2       28.7470   26.0390   35.6710 C.ar   84  TRP84       0.0191
     88  CZ3       27.8210   28.1910   36.2920 C.ar   84  TRP84       0.0001
     89  CH2       27.8040   26.7860   36.3330 C.ar   84  TRP84       0.0015
     90  N         19.9580   26.1370   41.5670 N.3   100  SER100     -0.1217
     91  CA        21.2330   25.9340   42.2180 C.3   100  SER100      0.1889
     92  C         21.2820   26.5360   43.6050 C.2   100  SER100      0.2288
     93  O         20.6000   27.5210   43.8980 O.2   100  SER100     -0.2866
     94  CB        22.3710   26.5310   41.3750 C.3   100  SER100      0.2089
     95  OG        23.6250   26.3040   42.0050 O.3   100  SER100     -0.2183
     96  N         24.4740   26.8660   44.8600 N.3   102  ASN102     -0.1240
     97  CA        25.8690   27.3080   44.8110 C.3   102  ASN102      0.1653
     98  C         25.8870   28.8200   44.5730 C.2   102  ASN102      0.2266
     99  O         25.5020   29.2890   43.5030 O.2   102  ASN102     -0.2867
    100  CB        26.5830   26.5840   43.6610 C.3   102  ASN102      0.1155
    101  CG        28.0640   26.8710   43.6160 C.2   102  ASN102      0.2627
    102  OD1       28.4880   28.0130   43.4730 O.2   102  ASN102     -0.2716
    103  ND2       28.8670   25.8210   43.7300 N.am  102  ASN102     -0.0877
    104  N         28.1710   31.0140   43.7960 N.3   104  LEU104     -0.1231
    105  CA        28.8420   31.4160   42.5590 C.3   104  LEU104      0.1693
    106  C         27.9310   31.1610   41.3690 C.2   104  LEU104      0.2591
    107  O         27.6990   32.0610   40.5710 O.2   104  LEU104     -0.2718
    108  CB        30.1590   30.6610   42.3810 C.3   104  LEU104      0.0284
    109  CG        30.9920   31.0150   41.1390 C.3   104  LEU104      0.0019
    110  CD1       31.3540   32.5050   41.1600 C.3   104  LEU104      0.0001
    111  CD2       32.2660   30.1570   41.1040 C.3   104  LEU104      0.0001
    112  N         27.3960   29.9470   41.2520 N.am  105  VAL105     -0.1980
    113  CA        26.5100   29.6530   40.1340 C.3   105  VAL105      0.1595
    114  C         25.3040   30.5930   40.1370 C.2   105  VAL105      0.2287
    115  O         24.8800   31.0800   39.0820 O.2   105  VAL105     -0.2864
    116  CB        26.0110   28.1940   40.1720 C.3   105  VAL105      0.0276
    117  CG1       24.9240   27.9670   39.1110 C.3   105  VAL105      0.0022
    118  CG2       27.1780   27.2560   39.9120 C.3   105  VAL105      0.0022
    119  N         26.4910   34.2640   39.0360 N.3   108  LEU108     -0.1245
    120  CA        26.8160   34.3350   37.6100 C.3   108  LEU108      0.1561
    121  C         25.5680   34.3100   36.7260 C.2   108  LEU108      0.2260
    122  O         25.4250   35.1450   35.8310 O.2   108  LEU108     -0.2867
    123  CB        27.7640   33.1930   37.2120 C.3   108  LEU108      0.0270
    124  CG        29.1830   33.2660   37.8070 C.3   108  LEU108      0.0019
    125  CD1       29.9720   31.9970   37.4330 C.3   108  LEU108      0.0001
    126  CD2       29.8970   34.5120   37.2950 C.3   108  LEU108      0.0001
@<TRIPOS>BOND
     1    66    64    1
     2    67    65    1
     3    64    65    1
     4    64    61    1
     5    79    78    2
     6    78    77    1
     7    76    77    1
     8    55    54    2
     9    77    80    1
    10    61    60    1
    11    61    62    1
    12    54    60   am
    13    54    53    1
    14    52    53    1
    15    62    63    2
    16    82    81   ar
    17    82    84   ar
    18    80    81    1
    19    53    56    1
    20    81    83   ar
    21    84    85   ar
    22    71    70    2
    23    70    69    1
    24    83    85   ar
    25    83    86   ar
    26    85    87   ar
    27    68    69    1
    28    56    57    1
    29    86    88   ar
    30    87    89   ar
    31    69    72    1
    32   122   121    2
    33    37    38    2
    34    37    36    1
    35     7     5    1
    36    58    57   ar
    37    88    89   ar
    38    31    32    1
    39    57    59   ar
    40    32    33    1
    41    35    36    1
    42    35    33   am
    43    36    39    1
    44    33    34    2
    45   121   120    1
    46     6     5    1
    47    72    73    1
    48   123   120    1
    49   123   124    1
    50   126   124    1
    51     5     2    1
    52   125   124    1
    53   120   119    1
    54     2     1    1
    55     2     3    1
    56    74    73    2
    57    39    40    1
    58    73    75   am
    59    11    10    2
    60     8     3   am
    61     8     9    1
    62     3     4    2
    63   115   114    2
    64   117   116    1
    65    30    29    1
    66    28    27    1
    67    28    29    1
    68    10     9    1
    69    10    12   am
    70    15    14    2
    71   118   116    1
    72    27    24    1
    73   113   114    1
    74   113   116    1
    75   113   112    1
    76    13    14    1
    77    13    12    1
    78    13    16    1
    79    14    23   am
    80   107   106    2
    81    17    16    1
    82    17    18    1
    83   111   109    1
    84    26    25    2
    85   109   110    1
    86   109   108    1
    87    23    24    1
    88   112   106   am
    89   106   105    1
    90    94    95    1
    91    94    91    1
    92    24    25    1
    93    90    91    1
    94    18    19    1
    95    91    92    1
    96   108   105    1
    97   105   104    1
    98    19    20    2
    99   102   101    2
   100    99    98    2
   101    92    93    2
   102   101   100    1
   103   101   103   am
   104   100    97    1
   105    20    21    1
   106    20    22    1
   107    98    97    1
   108    44    43    2
   109    97    96    1
   110    43    42    1
   111    48    47    1
   112    48    49    2
   113    51    49    1
   114    47    46    1
   115    46    45    1
   116    49    50    1
   117    45    42    1
   118    42    41    1
