@<TRIPOS>MOLECULE
tmp/1hyoB00.pdb
 144 137 0 0 0
SMALL
GASTEIGER

@<TRIPOS>ATOM
      1  N         60.5690   40.6480   47.0730 N.3   128  ASP128     -0.1225
      2  CA        60.7770   39.4010   46.3340 C.3   128  ASP128      0.1805
      3  C         59.4940   39.0220   45.6120 C.2   128  ASP128      0.2598
      4  O         58.4500   38.8890   46.2500 O.2   128  ASP128     -0.2718
      5  CB        61.2220   38.3270   47.3270 C.3   128  ASP128      0.1424
      6  CG        61.7680   37.1340   46.5910 C.2   128  ASP128      0.3668
      7  OD1       62.2840   37.1920   45.4760 O.co2 128  ASP128     -0.2456
      8  OD2       61.6660   36.0770   47.2260 O.co2 128  ASP128     -0.2456
      9  N         59.5780   38.8380   44.3030 N.am  129  PHE129     -0.1962
     10  CA        58.4280   38.3910   43.5120 C.3   129  PHE129      0.1771
     11  C         58.4120   36.8770   43.4380 C.2   129  PHE129      0.2619
     12  O         59.1900   36.1670   44.0800 O.2   129  PHE129     -0.2715
     13  CB        58.4300   39.0690   42.1300 C.3   129  PHE129      0.0574
     14  CG        58.0380   40.5280   42.2560 C.ar  129  PHE129     -0.0200
     15  CD1       58.9770   41.5210   42.4310 C.ar  129  PHE129     -0.0042
     16  CD2       56.6990   40.8730   42.2100 C.ar  129  PHE129     -0.0042
     17  CE1       58.5970   42.8430   42.5670 C.ar  129  PHE129     -0.0003
     18  CE2       56.3050   42.1860   42.3460 C.ar  129  PHE129     -0.0003
     19  CZ        57.2470   43.1780   42.5250 C.ar  129  PHE129     -0.0000
     20  N         57.4850   36.3200   42.6500 N.am  130  TYR130     -0.1974
     21  CA        57.1750   34.8930   42.5790 C.3   130  TYR130      0.1639
     22  C         56.9120   34.5450   41.1050 C.2   130  TYR130      0.2290
     23  O         55.9770   33.8070   40.8150 O.2   130  TYR130     -0.2864
     24  CB        55.9530   34.5900   43.4130 C.3   130  TYR130      0.0560
     25  CG        55.5670   33.2000   43.8380 C.ar  130  TYR130     -0.0198
     26  CD1       56.5120   32.1990   44.0240 C.ar  130  TYR130     -0.0009
     27  CD2       54.2340   32.8940   44.1220 C.ar  130  TYR130     -0.0009
     28  CE1       56.1330   30.9400   44.4580 C.ar  130  TYR130      0.0417
     29  CE2       53.8470   31.6370   44.5500 C.ar  130  TYR130      0.0417
     30  CZ        54.8070   30.6640   44.7110 C.ar  130  TYR130      0.1957
     31  OH        54.4580   29.3970   45.1500 O.3   130  TYR130     -0.2866
     32  N         58.3280   27.4510   38.7410 N.3   135  HIS135     -0.1241
     33  CA        58.6170   27.4560   40.1760 C.3   135  HIS135      0.1621
     34  C         57.3390   27.4730   41.0060 C.2   135  HIS135      0.2264
     35  O         57.1640   26.6550   41.9150 O.2   135  HIS135     -0.2867
     36  CB        59.5200   28.6480   40.5270 C.3   135  HIS135      0.0745
     37  CG        59.6500   28.7590   42.0200 C.ar  135  HIS135      0.0817
     38  ND1       60.4050   27.9000   42.7760 N.ar  135  HIS135     -0.2268
     39  CD2       59.0410   29.6180   42.8760 C.ar  135  HIS135      0.1154
     40  CE1       60.2840   28.2450   44.0610 C.ar  135  HIS135      0.1986
     41  NE2       59.4680   29.2890   44.1340 N.ar  135  HIS135     -0.2212
     42  N         55.9590   24.4330   43.4950 N.3   139  VAL139     -0.1245
     43  CA        55.5330   24.6590   44.8730 C.3   139  VAL139      0.1561
     44  C         54.0740   24.2750   45.0520 C.2   139  VAL139      0.2260
     45  O         53.7400   23.5530   46.0020 O.2   139  VAL139     -0.2867
     46  CB        55.8020   26.1200   45.2860 C.3   139  VAL139      0.0252
     47  CG1       55.1880   26.4420   46.6450 C.3   139  VAL139      0.0019
     48  CG2       57.2980   26.4080   45.3020 C.3   139  VAL139      0.0019
     49  N         52.7370   21.3060   47.5850 N.3   143  PHE143     -0.1241
     50  CA        52.0530   21.7620   48.7870 C.3   143  PHE143      0.1605
     51  C         50.5610   21.4650   48.7500 C.2   143  PHE143      0.2264
     52  O         49.9320   21.2980   49.7990 O.2   143  PHE143     -0.2867
     53  CB        52.2090   23.2790   48.9200 C.3   143  PHE143      0.0534
     54  CG        53.4610   23.8420   49.5000 C.ar  143  PHE143     -0.0203
     55  CD1       53.5290   25.2070   49.7720 C.ar  143  PHE143     -0.0042
     56  CD2       54.5610   23.0570   49.7980 C.ar  143  PHE143     -0.0042
     57  CE1       54.6690   25.7670   50.3160 C.ar  143  PHE143     -0.0003
     58  CE2       55.7050   23.6090   50.3400 C.ar  143  PHE143     -0.0003
     59  CZ        55.7580   24.9640   50.5980 C.ar  143  PHE143     -0.0000
     60  N         56.2090   39.7990   47.8440 N.3   161  TYR161     -0.1241
     61  CA        56.1370   40.1460   49.2640 C.3   161  TYR161      0.1605
     62  C         57.3060   41.0430   49.6440 C.2   161  TYR161      0.2264
     63  O         58.3440   41.0530   48.9690 O.2   161  TYR161     -0.2867
     64  CB        56.0600   38.8800   50.1840 C.3   161  TYR161      0.0534
     65  CG        57.3330   38.0700   50.1410 C.ar  161  TYR161     -0.0201
     66  CD1       58.2840   38.1640   51.1540 C.ar  161  TYR161     -0.0009
     67  CD2       57.6210   37.2250   49.0730 C.ar  161  TYR161     -0.0009
     68  CE1       59.4830   37.4710   51.1050 C.ar  161  TYR161      0.0417
     69  CE2       58.8100   36.5150   49.0010 C.ar  161  TYR161      0.0417
     70  CZ        59.7290   36.6570   50.0200 C.ar  161  TYR161      0.1957
     71  OH        60.9400   35.9980   49.9480 O.3   161  TYR161     -0.2866
     72  N         67.9590   29.6120   46.8020 N.3   201  GLU201     -0.1245
     73  CA        66.9450   30.0260   45.8250 C.3   201  GLU201      0.1567
     74  C         67.6080   30.9030   44.7610 C.2   201  GLU201      0.2260
     75  O         68.0370   32.0130   45.0890 O.2   201  GLU201     -0.2867
     76  CB        65.7670   30.7550   46.4710 C.3   201  GLU201      0.0388
     77  CG        65.0210   29.8740   47.4650 C.3   201  GLU201      0.1160
     78  CD        63.9790   30.5700   48.2790 C.2   201  GLU201      0.3649
     79  OE1       63.5130   31.5760   47.7460 O.co2 201  GLU201     -0.2457
     80  OE2       63.5420   30.2220   49.3740 O.co2 201  GLU201     -0.2457
     81  N         67.8580   33.4630   42.0810 N.3   203  GLU203     -0.1245
     82  CA        67.0750   34.6130   41.6300 C.3   203  GLU203      0.1567
     83  C         67.9720   35.6100   40.9330 C.2   203  GLU203      0.2260
     84  O         69.1930   35.5680   41.0480 O.2   203  GLU203     -0.2867
     85  CB        66.3880   35.3210   42.8110 C.3   203  GLU203      0.0388
     86  CG        65.5790   34.3200   43.6340 C.3   203  GLU203      0.1160
     87  CD        64.5440   34.9690   44.4850 C.2   203  GLU203      0.3649
     88  OE1       63.9440   35.9940   44.1410 O.co2 203  GLU203     -0.2457
     89  OE2       64.3140   34.4110   45.5410 O.co2 203  GLU203     -0.2457
     90  N         63.0990   25.9600   55.1260 N.3   239  ARG239     -0.1245
     91  CA        61.7990   25.5370   54.6520 C.3   239  ARG239      0.1563
     92  C         60.8710   25.0760   55.7710 C.2   239  ARG239      0.2260
     93  O         59.6580   25.2600   55.6590 O.2   239  ARG239     -0.2867
     94  CB        61.9070   24.4340   53.5930 C.3   239  ARG239      0.0307
     95  CG        62.7050   24.8520   52.3590 C.3   239  ARG239      0.0489
     96  CD        62.1030   26.0900   51.6980 C.3   239  ARG239      0.2205
     97  NE        62.6240   26.2340   50.3360 N.pl3 239  ARG239     -0.0865
     98  CZ        62.1530   27.1180   49.4640 C.cat 239  ARG239      0.5346
     99  NH1       61.1410   27.9200   49.8080 N.pl3 239  ARG239      0.1354
    100  NH2       62.6600   27.1990   48.2420 N.pl3 239  ARG239      0.1354
    101  N         59.7740   28.3110   57.4890 N.3   242  GLN242     -0.1245
    102  CA        58.8170   28.9260   56.5740 C.3   242  GLN242      0.1566
    103  C         57.4610   28.2490   56.6500 C.2   242  GLN242      0.2260
    104  O         56.4180   28.9090   56.7020 O.2   242  GLN242     -0.2867
    105  CB        59.3890   28.8500   55.1540 C.3   242  GLN242      0.0367
    106  CG        58.5320   29.5930   54.1370 C.3   242  GLN242      0.0905
    107  CD        59.1620   29.6110   52.7660 C.2   242  GLN242      0.2608
    108  OE1       60.3550   29.3830   52.5760 O.2   242  GLN242     -0.2717
    109  NE2       58.3620   29.8950   51.7410 N.am  242  GLN242     -0.0878
    110  N         55.9580   34.6120   54.0560 N.2   251  PRO251     -0.2584
    111  CA        57.2950   34.2300   54.4870 C.3   251  PRO251      0.1895
    112  C         57.9400   35.3180   55.3190 C.2   251  PRO251      0.2359
    113  O         57.8240   36.5030   54.9900 O.2   251  PRO251     -0.2858
    114  CB        58.0340   33.9540   53.1970 C.2   251  PRO251      0.0071
    115  CG        57.1690   34.3400   52.0590 C.2   251  PRO251      0.0180
    116  CD        55.8320   34.7610   52.5920 C.2   251  PRO251      0.0937
    117  N         62.9650   33.4290   55.5670 N.3   255  LYS255     -0.1245
    118  CA        63.8130   34.0640   54.5790 C.3   255  LYS255      0.1561
    119  C         64.8130   35.0320   55.1780 C.2   255  LYS255      0.2260
    120  O         65.8290   35.3280   54.5340 O.2   255  LYS255     -0.2867
    121  CB        62.9950   34.9120   53.5840 C.3   255  LYS255      0.0271
    122  CG        61.8710   34.1910   52.8870 C.3   255  LYS255      0.0035
    123  CD        62.3420   32.9920   52.0650 C.3   255  LYS255      0.0206
    124  CE        61.2010   32.5650   51.1520 C.3   255  LYS255      0.1093
    125  NZ        61.4360   31.2400   50.5060 N.3   255  LYS255     -0.1314
    126  N         62.0120   36.3470   41.9700 N.3   351  GLY351     -0.1210
    127  CA        61.4740   35.0400   42.3340 C.3   351  GLY351      0.1956
    128  C         62.4490   33.9460   41.9060 C.2   351  GLY351      0.2612
    129  O         63.3600   34.1530   41.0910 O.2   351  GLY351     -0.2717
    130  N         62.3010   32.7740   42.4960 N.am  352  THR352     -0.1952
    131  CA        63.1230   31.6100   42.1740 C.3   352  THR352      0.1897
    132  C         62.9300   31.1960   40.7250 C.2   352  THR352      0.2313
    133  O         61.7850   31.0290   40.2850 O.2   352  THR352     -0.2863
    134  CB        62.7390   30.4510   43.1170 C.3   352  THR352      0.1794
    135  OG1       62.9740   30.8570   44.4710 O.3   352  THR352     -0.2208
    136  CG2       63.5610   29.2060   42.8330 C.3   352  THR352      0.0378
    137  N         64.5510   22.5940   47.2950 N.3   365  LEU365     -0.1245
    138  CA        63.1840   22.1010   47.4870 C.3   365  LEU365      0.1561
    139  C         62.6610   21.4370   46.2180 C.2   365  LEU365      0.2260
    140  O         62.0330   20.3770   46.2720 O.2   365  LEU365     -0.2867
    141  CB        62.2940   23.2770   47.8960 C.3   365  LEU365      0.0270
    142  CG        60.8080   22.9720   48.0290 C.3   365  LEU365      0.0019
    143  CD1       60.5660   22.0030   49.1850 C.3   365  LEU365      0.0001
    144  CD2       60.0100   24.2530   48.2320 C.3   365  LEU365      0.0001
@<TRIPOS>BOND
     1    32    33    1
     2    33    36    1
     3    33    34    1
     4   133   132    2
     5    36    37    1
     6   132   131    1
     7    23    22    2
     8    83    84    2
     9    83    82    1
    10    34    35    2
    11   129   128    2
    12    22    21    1
    13    82    81    1
    14    82    85    1
    15   128   127    1
    16   128   130   am
    17   126   127    1
    18    37    38   ar
    19    37    39   ar
    20    13    14    1
    21    13    10    1
    22   131   130    1
    23   131   134    1
    24    16    14   ar
    25    16    18   ar
    26    14    15   ar
    27    18    19   ar
    28    15    17   ar
    29    19    17   ar
    30    21    20    1
    31    21    24    1
    32    20    11   am
    33    38    40   ar
    34    85    86    1
    35   136   134    1
    36    39    41   ar
    37   134   135    1
    38    24    25    1
    39    11    10    1
    40    11    12    2
    41    42    43    1
    42    10     9    1
    43    86    87    1
    44    25    26   ar
    45    25    27   ar
    46    26    28   ar
    47    40    41   ar
    48    27    29   ar
    49    88    87   ar
    50     9     3   am
    51    28    30   ar
    52    87    89   ar
    53    29    30   ar
    54    30    31    1
    55    74    75    2
    56    74    73    1
    57    43    44    1
    58    43    46    1
    59    44    45    2
    60    46    48    1
    61    46    47    1
    62     7     6   ar
    63     3     4    2
    64     3     2    1
    65    73    76    1
    66    73    72    1
    67   139   140    2
    68   139   138    1
    69     2     1    1
    70     2     5    1
    71    76    77    1
    72     6     8   ar
    73     6     5    1
    74   137   138    1
    75    77    78    1
    76   138   141    1
    77    49    50    1
    78    79    78   ar
    79    60    61    1
    80   141   142    1
    81   142   144    1
    82   142   143    1
    83   100    98    1
    84    78    80   ar
    85    51    50    1
    86    51    52    2
    87    50    53    1
    88    53    54    1
    89    63    62    2
    90    69    67   ar
    91    69    70   ar
    92    67    65   ar
    93    61    62    1
    94    61    64    1
    95    98    99    1
    96    98    97    2
    97    54    55   ar
    98    54    56   ar
    99    55    57   ar
   100    56    58   ar
   101    71    70    1
   102    70    68   ar
   103    65    64    1
   104    65    66   ar
   105    57    59   ar
   106    97    96    1
   107    58    59   ar
   108   125   124    1
   109    68    66   ar
   110   124   123    1
   111    96    95    1
   112   109   107   am
   113   115   116    1
   114   115   114    2
   115   123   122    1
   116    95    94    1
   117   108   107    2
   118   116   110    2
   119   107   106    1
   120   122   121    1
   121   114   111    1
   122   121   118    1
   123    94    91    1
   124   110   111    1
   125   106   105    1
   126   111   112    1
   127   120   119    2
   128   118   119    1
   129   118   117    1
   130    91    90    1
   131    91    92    1
   132   113   112    2
   133   105   102    1
   134    93    92    2
   135   102   103    1
   136   102   101    1
   137   103   104    2
