@<TRIPOS>MOLECULE
tmp/1hytA00.pdb
 141 136 0 0 0
SMALL
GASTEIGER

@<TRIPOS>ATOM
      1  N         32.8870   36.5820    0.1380 N.3   112  ASN112     -0.1225
      2  CA        33.1630   37.5660   -0.8700 C.3   112  ASN112      0.1785
      3  C         32.0520   38.6310   -0.8520 C.2   112  ASN112      0.2597
      4  O         31.0790   38.5500   -0.0750 O.2   112  ASN112     -0.2718
      5  CB        33.2540   36.8860   -2.2490 C.3   112  ASN112      0.1169
      6  CG        34.2430   37.4930   -3.2800 C.2   112  ASN112      0.2627
      7  OD1       34.8230   38.5520   -3.0780 O.2   112  ASN112     -0.2716
      8  ND2       34.4000   36.8260   -4.4180 N.am  112  ASN112     -0.0877
      9  N         32.2790   39.6610   -1.6780 N.am  113  ALA113     -0.1966
     10  CA        31.3460   40.7550   -1.9280 C.3   113  ALA113      0.1728
     11  C         31.5460   41.1880   -3.3430 C.2   113  ALA113      0.2616
     12  O         32.6040   40.9820   -3.8830 O.2   113  ALA113     -0.2715
     13  CB        31.4970   41.9270   -0.9830 C.3   113  ALA113      0.0334
     14  N         30.5320   41.7760   -3.9660 N.am  114  PHE114     -0.1974
     15  CA        30.6890   42.1830   -5.3380 C.3   114  PHE114      0.1639
     16  C         29.5880   43.1280   -5.8050 C.2   114  PHE114      0.2290
     17  O         28.5750   43.3240   -5.1610 O.2   114  PHE114     -0.2864
     18  CB        30.6290   40.9520   -6.2440 C.3   114  PHE114      0.0560
     19  CG        29.4100   40.0260   -6.1280 C.ar  114  PHE114     -0.0200
     20  CD1       29.3540   39.0300   -5.1430 C.ar  114  PHE114     -0.0042
     21  CD2       28.3850   40.0690   -7.0870 C.ar  114  PHE114     -0.0042
     22  CE1       28.2780   38.1300   -5.0620 C.ar  114  PHE114     -0.0003
     23  CE2       27.2750   39.2180   -6.9980 C.ar  114  PHE114     -0.0003
     24  CZ        27.2410   38.2410   -5.9950 C.ar  114  PHE114     -0.0000
     25  N         36.6790   35.3250    6.8690 N.3   130  PHE130     -0.1241
     26  CA        36.0410   36.6250    6.9440 C.3   130  PHE130      0.1605
     27  C         34.9000   36.5960    7.8710 C.2   130  PHE130      0.2264
     28  O         34.3130   35.5640    8.0710 O.2   130  PHE130     -0.2867
     29  CB        35.4030   37.0090    5.5990 C.3   130  PHE130      0.0534
     30  CG        36.3570   37.4230    4.5260 C.ar  130  PHE130     -0.0203
     31  CD1       36.8510   38.7340    4.4980 C.ar  130  PHE130     -0.0042
     32  CD2       36.7190   36.5580    3.4850 C.ar  130  PHE130     -0.0042
     33  CE1       37.7300   39.1620    3.5010 C.ar  130  PHE130     -0.0003
     34  CE2       37.5970   36.9640    2.4750 C.ar  130  PHE130     -0.0003
     35  CZ        38.1040   38.2690    2.5000 C.ar  130  PHE130     -0.0000
     36  N         31.1600   40.8620    5.2710 N.3   133  LEU133     -0.1245
     37  CA        31.9580   41.7510    4.4740 C.3   133  LEU133      0.1561
     38  C         31.5780   43.2350    4.5090 C.2   133  LEU133      0.2260
     39  O         32.4250   44.1210    4.2970 O.2   133  LEU133     -0.2867
     40  CB        32.1530   41.1970    3.0540 C.3   133  LEU133      0.0270
     41  CG        33.2100   40.1000    3.1170 C.3   133  LEU133      0.0019
     42  CD1       32.5590   38.7540    3.3090 C.3   133  LEU133      0.0001
     43  CD2       34.0580   40.1580    1.8900 C.3   133  LEU133      0.0001
     44  N         35.7380   47.9790    1.9040 N.3   139  VAL139     -0.1245
     45  CA        35.0940   46.9650    1.0380 C.3   139  VAL139      0.1561
     46  C         33.8320   47.5700    0.3750 C.2   139  VAL139      0.2260
     47  O         33.6360   47.4890   -0.8520 O.2   139  VAL139     -0.2867
     48  CB        34.6400   45.7670    1.8790 C.3   139  VAL139      0.0252
     49  CG1       33.9540   44.7540    0.9770 C.3   139  VAL139      0.0019
     50  CG2       35.8640   45.1550    2.5670 C.3   139  VAL139      0.0019
     51  N         34.8450   50.0570   -2.1210 N.3   142  HIS142     -0.1226
     52  CA        35.4540   49.3490   -3.2650 C.3   142  HIS142      0.1752
     53  C         34.3320   48.8870   -4.1940 C.2   142  HIS142      0.2595
     54  O         34.3710   49.0980   -5.3960 O.2   142  HIS142     -0.2718
     55  CB        36.3050   48.1290   -2.7370 C.3   142  HIS142      0.0759
     56  CG        36.8480   47.2180   -3.8230 C.ar  142  HIS142      0.0818
     57  ND1       38.2270   47.1430   -4.1290 N.ar  142  HIS142     -0.2268
     58  CD2       36.1640   46.3090   -4.6320 C.ar  142  HIS142      0.1154
     59  CE1       38.3240   46.2520   -5.1670 C.ar  142  HIS142      0.1986
     60  NE2       37.0960   45.7160   -5.4640 N.ar  142  HIS142     -0.2212
     61  N         33.2490   48.3470   -3.5780 N.am  143  GLU143     -0.1979
     62  CA        32.1350   47.8700   -4.4010 C.3   143  GLU143      0.1602
     63  C         31.4180   49.0010   -5.1470 C.2   143  GLU143      0.2287
     64  O         31.1160   48.9080   -6.3440 O.2   143  GLU143     -0.2864
     65  CB        31.1460   47.0030   -3.5880 C.3   143  GLU143      0.0415
     66  CG        31.8270   45.7350   -2.9610 C.3   143  GLU143      0.1163
     67  CD        32.5990   44.8640   -3.9910 C.2   143  GLU143      0.3649
     68  OE1       32.4760   44.9140   -5.1840 O.co2 143  GLU143     -0.2457
     69  OE2       33.4660   44.1020   -3.4460 O.co2 143  GLU143     -0.2457
     70  N         33.1280   50.2290   -8.1760 N.3   146  HIS146     -0.1241
     71  CA        32.9890   49.4640   -9.4090 C.3   146  HIS146      0.1621
     72  C         31.7780   49.9850  -10.1980 C.2   146  HIS146      0.2264
     73  O         31.7530   50.0090  -11.4070 O.2   146  HIS146     -0.2867
     74  CB        32.7640   47.9760   -9.1470 C.3   146  HIS146      0.0745
     75  CG        34.0430   47.1790   -8.8700 C.ar  146  HIS146      0.0817
     76  ND1       35.1470   47.1560   -9.7600 N.ar  146  HIS146     -0.2268
     77  CD2       34.3300   46.3120   -7.8800 C.ar  146  HIS146      0.1154
     78  CE1       36.0480   46.2940   -9.2730 C.ar  146  HIS146      0.1986
     79  NE2       35.5860   45.7900   -8.1570 N.ar  146  HIS146     -0.2212
     80  N         36.6520   43.8700  -17.4610 N.3   157  TYR157     -0.1241
     81  CA        37.1330   43.1270  -16.3190 C.3   157  TYR157      0.1605
     82  C         38.1020   41.9880  -16.6580 C.2   157  TYR157      0.2264
     83  O         37.8810   40.8170  -16.3230 O.2   157  TYR157     -0.2867
     84  CB        35.9640   42.6410  -15.4250 C.3   157  TYR157      0.0534
     85  CG        36.3580   42.5150  -13.9600 C.ar  157  TYR157     -0.0201
     86  CD1       36.7980   43.6230  -13.2240 C.ar  157  TYR157     -0.0009
     87  CD2       36.3290   41.2780  -13.3020 C.ar  157  TYR157     -0.0009
     88  CE1       37.1150   43.5370  -11.8650 C.ar  157  TYR157      0.0417
     89  CE2       36.5700   41.1770  -11.9230 C.ar  157  TYR157      0.0417
     90  CZ        36.9990   42.3030  -11.2190 C.ar  157  TYR157      0.1957
     91  OH        37.2320   42.2160   -9.8810 O.3   157  TYR157     -0.2866
     92  N         40.2100   47.1500  -10.8670 N.3   166  GLU166     -0.1245
     93  CA        40.3940   46.7580   -9.4460 C.3   166  GLU166      0.1567
     94  C         41.1380   47.8130   -8.5860 C.2   166  GLU166      0.2260
     95  O         40.7270   48.1600   -7.4870 O.2   166  GLU166     -0.2867
     96  CB        41.1710   45.4080   -9.3570 C.3   166  GLU166      0.0388
     97  CG        40.2000   44.2210   -9.3450 C.3   166  GLU166      0.1160
     98  CD        39.1110   44.3860   -8.3150 C.2   166  GLU166      0.3649
     99  OE1       39.5590   44.4100   -7.0790 O.co2 166  GLU166     -0.2457
    100  OE2       37.9520   44.2710   -8.5970 O.co2 166  GLU166     -0.2457
    101  N         43.8550   46.9420    2.5060 N.3   188  ILE188     -0.1231
    102  CA        42.5090   46.6180    2.0140 C.3   188  ILE188      0.1692
    103  C         41.8320   45.4770    2.7970 C.2   188  ILE188      0.2592
    104  O         42.3010   44.3300    2.7490 O.2   188  ILE188     -0.2718
    105  CB        42.4990   46.2470    0.5420 C.3   188  ILE188      0.0266
    106  CG1       43.1210   47.3870   -0.2610 C.3   188  ILE188      0.0019
    107  CG2       41.0350   45.9730    0.0910 C.3   188  ILE188      0.0020
    108  CD1       42.3270   48.6860   -0.1160 C.3   188  ILE188      0.0001
    109  N         40.6710   45.7590    3.4270 N.am  189  GLY189     -0.1957
    110  CA        39.8790   44.6900    4.0260 C.3   189  GLY189      0.1869
    111  C         40.3420   44.2210    5.3940 C.2   189  GLY189      0.2309
    112  O         39.8260   43.2440    5.9540 O.2   189  GLY189     -0.2863
    113  N         43.7600   41.7830    3.2590 N.3   202  LEU202     -0.1231
    114  CA        43.6690   41.0460    2.0170 C.3   202  LEU202      0.1693
    115  C         44.7630   41.4800    1.0360 C.2   202  LEU202      0.2591
    116  O         45.3590   40.6600    0.3340 O.2   202  LEU202     -0.2718
    117  CB        42.2230   41.2280    1.4470 C.3   202  LEU202      0.0284
    118  CG        41.9090   40.2830    0.3690 C.3   202  LEU202      0.0019
    119  CD1       41.8850   38.9090    1.0120 C.3   202  LEU202      0.0001
    120  CD2       40.5250   40.6390   -0.1830 C.3   202  LEU202      0.0001
    121  N         44.9280   42.7950    0.9300 N.am  203  ARG203     -0.1980
    122  CA        45.8850   43.3850    0.0270 C.3   203  ARG203      0.1597
    123  C         46.4780   44.5480    0.7460 C.2   203  ARG203      0.2287
    124  O         45.8610   45.0820    1.6720 O.2   203  ARG203     -0.2864
    125  CB        45.1800   43.9630   -1.2050 C.3   203  ARG203      0.0334
    126  CG        44.7890   42.9310   -2.2600 C.3   203  ARG203      0.0492
    127  CD        44.3130   43.5990   -3.5600 C.3   203  ARG203      0.2205
    128  NE        43.0070   44.1830   -3.3870 N.pl3 203  ARG203     -0.0865
    129  CZ        41.8410   43.5120   -3.3710 C.cat 203  ARG203      0.5346
    130  NH1       41.7430   42.1870   -3.3610 N.pl3 203  ARG203      0.1354
    131  NH2       40.7200   44.2140   -3.3620 N.pl3 203  ARG203      0.1354
    132  N         43.0810   40.8790   -9.6600 N.3   231  HIS231     -0.1241
    133  CA        43.3070   41.1620   -8.2820 C.3   231  HIS231      0.1621
    134  C         44.8040   41.0650   -7.8990 C.2   231  HIS231      0.2264
    135  O         45.1670   41.3860   -6.7330 O.2   231  HIS231     -0.2867
    136  CB        42.4960   40.3160   -7.2700 C.3   231  HIS231      0.0745
    137  CG        41.0160   40.5130   -7.4110 C.ar  231  HIS231      0.0817
    138  ND1       40.2800   39.7770   -8.3160 N.ar  231  HIS231     -0.2268
    139  CD2       40.1700   41.3660   -6.7510 C.ar  231  HIS231      0.1154
    140  CE1       38.9990   40.1590   -8.1920 C.ar  231  HIS231      0.1986
    141  NE2       38.9090   41.1060   -7.2680 N.ar  231  HIS231     -0.2212
@<TRIPOS>BOND
     1    80    81    1
     2    82    83    2
     3    82    81    1
     4    81    84    1
     5    84    85    1
     6    85    87   ar
     7    85    86   ar
     8    87    89   ar
     9    86    88   ar
    10    89    90   ar
    11    88    90   ar
    12    73    72    2
    13    90    91    1
    14    92    93    1
    15    72    71    1
    16    76    78   ar
    17    76    75   ar
    18   132   133    1
    19    93    96    1
    20    93    94    1
    21    71    74    1
    22    71    70    1
    23    96    97    1
    24    97    98    1
    25    78    79   ar
    26    74    75    1
    27    75    77   ar
    28   100    98   ar
    29    94    95    2
    30   138   140   ar
    31   138   137   ar
    32    98    99   ar
    33   133   134    1
    34   133   136    1
    35   140   141   ar
    36    79    77   ar
    37   134   135    2
    38   137   136    1
    39   137   139   ar
    40   141   139   ar
    41    21    23   ar
    42    21    19   ar
    43    23    24   ar
    44    64    63    2
    45    18    19    1
    46    18    15    1
    47    19    20   ar
    48    24    22   ar
    49    16    15    1
    50    16    17    2
    51    60    59   ar
    52    60    58   ar
    53    54    53    2
    54    15    14    1
    55    68    67   ar
    56    59    57   ar
    57    63    62    1
    58    20    22   ar
    59    58    56   ar
    60     8     6   am
    61    62    65    1
    62    62    61    1
    63    53    61   am
    64    53    52    1
    65    57    56   ar
    66    67    69   ar
    67    67    66    1
    68    14    11   am
    69    12    11    2
    70    56    55    1
    71    65    66    1
    72   127   128    1
    73   127   126    1
    74   128   129    2
    75   129   131    1
    76   129   130    1
    77    11    10    1
    78     6     7    2
    79     6     5    1
    80    52    55    1
    81    52    51    1
    82   126   125    1
    83     5     2    1
    84    10     9    1
    85    10    13    1
    86     9     3   am
    87   125   122    1
    88     2     3    1
    89     2     1    1
    90    47    46    2
    91     3     4    2
    92   106   108    1
    93   106   105    1
    94   120   118    1
    95   122   123    1
    96   122   121    1
    97   107   105    1
    98   116   115    2
    99   118   119    1
   100   118   117    1
   101    46    45    1
   102   105   102    1
   103   123   124    2
   104   121   115   am
   105    49    48    1
   106   115   114    1
   107    45    48    1
   108    45    44    1
   109   117   114    1
   110    48    50    1
   111    43    41    1
   112   102   101    1
   113   102   103    1
   114   114   113    1
   115    34    35   ar
   116    34    32   ar
   117    35    33   ar
   118   104   103    2
   119   103   109   am
   120    40    41    1
   121    40    37    1
   122    41    42    1
   123   109   110    1
   124    32    30   ar
   125    33    31   ar
   126   110   111    1
   127    39    38    2
   128    37    38    1
   129    37    36    1
   130    31    30   ar
   131    30    29    1
   132   111   112    2
   133    29    26    1
   134    25    26    1
   135    26    27    1
   136    27    28    2
