@<TRIPOS>MOLECULE
tmp/1hzlA00.pdb
 151 148 0 0 0
SMALL
GASTEIGER

@<TRIPOS>ATOM
      1  N         -9.0870    0.6250   -9.1650 N.3    32  TYR32      -0.1227
      2  CA        -7.6920    0.7740   -9.6630 C.3    32  TYR32       0.1736
      3  C         -6.7560   -0.1430   -8.8660 C.2    32  TYR32       0.2595
      4  O         -6.9710   -0.3940   -7.6980 O.2    32  TYR32      -0.2718
      5  CB        -7.3380    2.2440   -9.4100 C.3    32  TYR32       0.0548
      6  CG        -8.2470    3.1480  -10.2180 C.ar   32  TYR32      -0.0200
      7  CD1       -9.6290    3.1780   -9.9640 C.ar   32  TYR32      -0.0009
      8  CD2       -7.7070    3.9610  -11.2190 C.ar   32  TYR32      -0.0009
      9  CE1      -10.4600    4.0190  -10.7120 C.ar   32  TYR32       0.0417
     10  CE2       -8.5400    4.8030  -11.9640 C.ar   32  TYR32       0.0417
     11  CZ        -9.9140    4.8320  -11.7110 C.ar   32  TYR32       0.1957
     12  OH       -10.7330    5.6620  -12.4470 O.3    32  TYR32      -0.2866
     13  N         -5.7200   -0.6410   -9.4820 N.am   33  ILE33      -0.1966
     14  CA        -4.7830   -1.5390   -8.7410 C.3    33  ILE33       0.1727
     15  C         -3.3340   -1.1000   -8.9630 C.2    33  ILE33       0.2616
     16  O         -2.9680   -0.6410  -10.0260 O.2    33  ILE33      -0.2715
     17  CB        -5.0170   -2.9370   -9.3250 C.3    33  ILE33       0.0290
     18  CG1       -3.8500   -3.8580   -8.9490 C.3    33  ILE33       0.0022
     19  CG2       -5.1150   -2.8450  -10.8490 C.3    33  ILE33       0.0023
     20  CD1       -3.8850   -4.1450   -7.4480 C.3    33  ILE33       0.0001
     21  N         -2.5080   -1.2350   -7.9610 N.am   34  ALA34      -0.1977
     22  CA        -1.0830   -0.8260   -8.1100 C.3    34  ALA34       0.1597
     23  C         -0.2620   -1.3220   -6.9130 C.2    34  ALA34       0.2287
     24  O         -0.7860   -1.5480   -5.8350 O.2    34  ALA34      -0.2864
     25  CB        -1.1050    0.7060   -8.1460 C.3    34  ALA34       0.0319
     26  N          3.0910   -0.9760   -4.1440 N.3    36  CYS36      -0.1235
     27  CA         3.7730    0.1630   -3.4670 C.3    36  CYS36       0.1677
     28  C          4.9770   -0.3190   -2.6510 C.2    36  CYS36       0.2270
     29  O          5.3050   -1.4880   -2.6270 O.2    36  CYS36      -0.2867
     30  CB         2.7100    0.7670   -2.5490 C.3    36  CYS36       0.0956
     31  SG         1.3350    1.3960   -3.5500 S.3    36  CYS36      -0.0801
     32  N          5.2510    6.1860    2.2300 N.3    43  ASP43      -0.1239
     33  CA         4.8910    5.0400    1.3470 C.3    43  ASP43       0.1674
     34  C          4.6950    5.5300   -0.0870 C.2    43  ASP43       0.2266
     35  O          3.7770    6.2710   -0.3840 O.2    43  ASP43      -0.2867
     36  CB         3.5820    4.4950    1.9150 C.3    43  ASP43       0.1410
     37  CG         2.4710    5.5250    1.7180 C.2    43  ASP43       0.3668
     38  OD1        2.4210    6.4680    2.4890 O.co2  43  ASP43      -0.2456
     39  OD2        1.6880    5.3530    0.7980 O.co2  43  ASP43      -0.2456
     40  N          4.1500    4.7850   -4.3260 N.3    45  CYS45      -0.1221
     41  CA         3.5290    3.7300   -5.1820 C.3    45  CYS45       0.1808
     42  C          3.9940    3.8930   -6.6380 C.2    45  CYS45       0.2601
     43  O          4.3930    4.9620   -7.0550 O.2    45  CYS45      -0.2717
     44  CB         2.0200    3.9440   -5.0530 C.3    45  CYS45       0.0970
     45  SG         1.4790    3.4080   -3.4060 S.3    45  CYS45      -0.0800
     46  N          3.9450    2.8400   -7.4070 N.am   46  ASN46      -0.1961
     47  CA         4.3850    2.9250   -8.8370 C.3    46  ASN46       0.1804
     48  C          3.3800    3.7360   -9.6680 C.2    46  ASN46       0.2463
     49  O          2.2080    3.4170   -9.7080 O.2    46  ASN46      -0.2730
     50  CB         4.4230    1.4760   -9.3170 C.3    46  ASN46       0.1195
     51  CG         5.2760    1.3740  -10.5840 C.2    46  ASN46       0.2630
     52  OD1        5.2900    2.2770  -11.3950 O.2    46  ASN46      -0.2716
     53  ND2        5.9920    0.3020  -10.7900 N.am   46  ASN46      -0.0877
     54  N          3.8790    4.7640  -10.3080 N.am   47  PRO47      -0.2727
     55  CA         3.0200    5.6220  -11.1440 C.3    47  PRO47       0.1402
     56  C          2.8100    4.9910  -12.5280 C.2    47  PRO47       0.2269
     57  O          1.8430    5.2750  -13.2070 O.2    47  PRO47      -0.2865
     58  CB         3.8090    6.9180  -11.2620 C.3    47  PRO47       0.0296
     59  CG         5.2480    6.5280  -11.0630 C.3    47  PRO47       0.0237
     60  CD         5.2700    5.2200  -10.2910 C.3    47  PRO47       0.0939
     61  N         -0.2290    0.8990  -12.9360 N.3    50  ALA50      -0.1245
     62  CA        -1.5080    1.2040  -12.2350 C.3    50  ALA50       0.1562
     63  C         -2.6510    1.2770  -13.2490 C.2    50  ALA50       0.2260
     64  O         -2.8400    2.2770  -13.9140 O.2    50  ALA50      -0.2867
     65  CB        -1.2870    2.5650  -11.5780 C.3    50  ALA50       0.0290
     66  N          6.8670    7.3370   -5.4210 N.3    74  SER74      -0.1202
     67  CA         6.3230    8.7260   -5.4140 C.3    74  SER74       0.2020
     68  C          4.8810    8.7070   -4.8790 C.2    74  SER74       0.2619
     69  O          4.4960    7.8150   -4.1490 O.2    74  SER74      -0.2717
     70  CB         6.3520    9.1680   -6.8740 C.3    74  SER74       0.2103
     71  OG         6.7950   10.5180   -6.9470 O.3    74  SER74      -0.2182
     72  N          4.0820    9.6770   -5.2350 N.am   75  THR75      -0.1939
     73  CA         2.6700    9.6960   -4.7370 C.3    75  THR75       0.2013
     74  C          1.6890    9.7760   -5.9170 C.2    75  THR75       0.2484
     75  O          1.9600   10.4270   -6.9060 O.2    75  THR75      -0.2729
     76  CB         2.5660   10.9470   -3.8600 C.3    75  THR75       0.1807
     77  OG1        3.1220   12.0560   -4.5480 O.3    75  THR75      -0.2208
     78  CG2        3.3300   10.7220   -2.5540 C.3    75  THR75       0.0379
     79  N          0.5760    9.1060   -5.7600 N.am   76  PRO76      -0.2715
     80  CA        -0.4730    9.0870   -6.8160 C.3    76  PRO76       0.1536
     81  C         -1.0910   10.4740   -7.0020 C.2    76  PRO76       0.2598
     82  O         -1.8340   10.7090   -7.9320 O.2    76  PRO76      -0.2715
     83  CB        -1.4990    8.0930   -6.2830 C.3    76  PRO76       0.0310
     84  CG        -1.2910    8.0940   -4.8030 C.3    76  PRO76       0.0237
     85  CD         0.1820    8.3270   -4.5870 C.3    76  PRO76       0.0939
     86  N         -0.7870   11.3920   -6.1320 N.am   77  GLU77      -0.1978
     87  CA        -1.3620   12.7610   -6.2670 C.3    77  GLU77       0.1602
     88  C         -0.4880   13.6160   -7.1890 C.2    77  GLU77       0.2287
     89  O         -0.9680   14.2580   -8.1020 O.2    77  GLU77      -0.2864
     90  CB        -1.3620   13.3300   -4.8490 C.3    77  GLU77       0.0415
     91  CG        -2.7820   13.2800   -4.2800 C.3    77  GLU77       0.1163
     92  CD        -3.4780   14.6200   -4.5260 C.2    77  GLU77       0.3649
     93  OE1       -3.1400   15.2700   -5.5030 O.co2  77  GLU77      -0.2457
     94  OE2       -4.3380   14.9720   -3.7370 O.co2  77  GLU77      -0.2457
     95  N         -2.0890   -3.5900   -3.5490 N.3    94  GLY94      -0.1210
     96  CA        -3.4810   -3.3740   -3.0540 C.3    94  GLY94       0.1956
     97  C         -4.3420   -2.7540   -4.1540 C.2    94  GLY94       0.2612
     98  O         -3.8410   -2.1650   -5.0930 O.2    94  GLY94      -0.2717
     99  N         -5.6390   -2.8830   -4.0420 N.am   95  ALA95      -0.1965
    100  CA        -6.5440   -2.3010   -5.0800 C.3    95  ALA95       0.1728
    101  C         -7.7820   -1.6780   -4.4190 C.2    95  ALA95       0.2617
    102  O         -8.0710   -1.9250   -3.2640 O.2    95  ALA95      -0.2715
    103  CB        -6.9480   -3.4850   -5.9590 C.3    95  ALA95       0.0334
    104  N         -8.5120   -0.8700   -5.1430 N.am   96  GLY96      -0.1940
    105  CA        -9.7290   -0.2280   -4.5590 C.3    96  GLY96       0.2014
    106  C         -9.9700    1.1220   -5.2390 C.2    96  GLY96       0.2639
    107  O         -9.1270    1.6240   -5.9560 O.2    96  GLY96      -0.2714
    108  N        -11.1170    1.7190   -5.0250 N.am   97  ASN97      -0.1958
    109  CA       -11.3970    3.0350   -5.6650 C.3    97  ASN97       0.1819
    110  C        -11.5840    4.1240   -4.5970 C.2    97  ASN97       0.2622
    111  O        -11.5150    3.8690   -3.4130 O.2    97  ASN97      -0.2715
    112  CB       -12.6850    2.8320   -6.4620 C.3    97  ASN97       0.1195
    113  CG       -12.7810    3.9010   -7.5470 C.2    97  ASN97       0.2630
    114  OD1      -12.0760    3.8440   -8.5300 O.2    97  ASN97      -0.2716
    115  ND2      -13.6290    4.8810   -7.4090 N.am   97  ASN97      -0.0877
    116  N        -11.8270    5.3350   -5.0190 N.am   98  SER98      -0.1936
    117  CA       -12.0190    6.4560   -4.0450 C.3    98  SER98       0.2055
    118  C        -12.8760    6.0230   -2.8450 C.2    98  SER98       0.2644
    119  O        -12.7290    6.5400   -1.7550 O.2    98  SER98      -0.2714
    120  CB       -12.7320    7.5460   -4.8390 C.3    98  SER98       0.2130
    121  OG       -11.9540    7.8810   -5.9820 O.3    98  SER98      -0.2179
    122  N        -13.7690    5.0890   -3.0250 N.am   99  GLY99      -0.1939
    123  CA       -14.6140    4.6540   -1.8730 C.3    99  GLY99       0.2014
    124  C        -14.4550    3.1510   -1.6320 C.2    99  GLY99       0.2639
    125  O        -13.6660    2.7260   -0.8130 O.2    99  GLY99      -0.2714
    126  N        -15.2080    2.3470   -2.3380 N.am  100  LEU100     -0.1963
    127  CA       -15.1100    0.8640   -2.1560 C.3   100  LEU100      0.1728
    128  C        -13.6590    0.4300   -1.9280 C.2   100  LEU100      0.2616
    129  O        -12.7720    0.7680   -2.6850 O.2   100  LEU100     -0.2715
    130  CB       -15.6410    0.2700   -3.4580 C.3   100  LEU100      0.0311
    131  CG       -16.1000   -1.1670   -3.2120 C.3   100  LEU100      0.0022
    132  CD1      -17.3190   -1.4700   -4.0860 C.3   100  LEU100      0.0001
    133  CD2      -14.9630   -2.1340   -3.5600 C.3   100  LEU100      0.0001
    134  N        -13.4150   -0.3190   -0.8880 N.am  101  ASP101     -0.1971
    135  CA       -12.0260   -0.7790   -0.6070 C.3   101  ASP101      0.1709
    136  C        -11.9660   -2.3080   -0.6750 C.2   101  ASP101      0.2293
    137  O        -12.9470   -2.9850   -0.4470 O.2   101  ASP101     -0.2864
    138  CB       -11.7220   -0.2880    0.8090 C.3   101  ASP101      0.1436
    139  CG       -10.2130   -0.3540    1.0570 C.2   101  ASP101      0.3671
    140  OD1       -9.5410    0.6180    0.7560 O.co2 101  ASP101     -0.2456
    141  OD2       -9.7580   -1.3760    1.5440 O.co2 101  ASP101     -0.2456
    142  N         -4.9690   -5.8090    0.2670 N.3   104  HIS104     -0.1241
    143  CA        -3.6290   -5.7470   -0.3910 C.3   104  HIS104      0.1621
    144  C         -2.8090   -6.9960   -0.0540 C.2   104  HIS104      0.2264
    145  O         -2.7880   -7.4540    1.0720 O.2   104  HIS104     -0.2867
    146  CB        -2.9530   -4.4900    0.1800 C.3   104  HIS104      0.0745
    147  CG        -3.2810   -4.3520    1.6440 C.ar  104  HIS104      0.0817
    148  ND1       -4.3440   -3.5830    2.0920 N.ar  104  HIS104     -0.2268
    149  CD2       -2.7020   -4.8830    2.7680 C.ar  104  HIS104      0.1154
    150  CE1       -4.3710   -3.6740    3.4350 C.ar  104  HIS104      0.1986
    151  NE2       -3.3910   -4.4550    3.8970 N.ar  104  HIS104     -0.2212
@<TRIPOS>BOND
     1    64    63    2
     2    63    62    1
     3    57    56    2
     4    61    62    1
     5    56    55    1
     6    12    11    1
     7    62    65    1
     8    10    11   ar
     9    10     8   ar
    10    11     9   ar
    11    52    51    2
    12    58    55    1
    13    58    59    1
    14     8     6   ar
    15    55    54    1
    16    59    60    1
    17    19    17    1
    18    53    51   am
    19     9     7   ar
    20    51    50    1
    21    54    60    1
    22    54    48   am
    23     6     7   ar
    24     6     5    1
    25    16    15    2
    26    49    48    2
    27    48    47    1
    28     2     5    1
    29     2     1    1
    30     2     3    1
    31    13     3   am
    32    13    14    1
    33    17    18    1
    34    17    14    1
    35    50    47    1
    36    15    14    1
    37    15    21   am
    38    18    20    1
    39     3     4    2
    40    47    46    1
    41   114   113    2
    42    25    22    1
    43    22    21    1
    44    22    23    1
    45    89    88    2
    46    82    81    2
    47   113   115   am
    48   113   112    1
    49    46    42   am
    50    88    87    1
    51    43    42    2
    52    81    80    1
    53    81    86   am
    54    71    70    1
    55    23    24    2
    56    75    74    2
    57    70    67    1
    58    80    83    1
    59    80    79    1
    60    42    41    1
    61   112   109    1
    62    83    84    1
    63    87    86    1
    64    87    90    1
    65   121   120    1
    66   103   100    1
    67   107   106    2
    68    74    79   am
    69    74    73    1
    70    79    85    1
    71   109   108    1
    72   109   110    1
    73    93    92   ar
    74    66    67    1
    75    67    68    1
    76   106   108   am
    77   106   105    1
    78    72    68   am
    79    72    73    1
    80    41    44    1
    81    41    40    1
    82   104   105    1
    83   104   101   am
    84    98    97    2
    85   100   101    1
    86   100    99    1
    87    44    45    1
    88   116   110   am
    89   116   117    1
    90    68    69    2
    91    90    91    1
    92   120   117    1
    93    84    85    1
    94    73    76    1
    95   110   111    2
    96    77    76    1
    97    92    91    1
    98    92    94   ar
    99   101   102    2
   100    97    99   am
   101    97    96    1
   102    26    27    1
   103   132   131    1
   104   117   118    1
   105    76    78    1
   106   133   131    1
   107    31    45    1
   108    31    30    1
   109    95    96    1
   110    27    28    1
   111    27    30    1
   112   130   131    1
   113   130   127    1
   114   122   118   am
   115   122   123    1
   116   118   119    2
   117   129   128    2
   118    28    29    2
   119   126   127    1
   120   126   124   am
   121   127   128    1
   122   128   134   am
   123   123   124    1
   124   124   125    2
   125   134   135    1
   126   136   135    1
   127   136   137    2
   128   135   138    1
   129   143   144    1
   130   143   146    1
   131   143   142    1
   132    35    34    2
   133    34    33    1
   134   144   145    2
   135   146   147    1
   136   140   139   ar
   137    39    37   ar
   138   138   139    1
   139   139   141   ar
   140    33    36    1
   141    33    32    1
   142   147   148   ar
   143   147   149   ar
   144    37    36    1
   145    37    38   ar
   146   148   150   ar
   147   149   151   ar
   148   150   151   ar
