@<TRIPOS>MOLECULE
tmp/1hzpA00.pdb
 194 188 0 0 0
SMALL
GASTEIGER

@<TRIPOS>ATOM
      1  N        -15.4700   35.9130   48.3870 N.3    42  TRP42      -0.1241
      2  CA       -15.0870   37.2790   48.7450 C.3    42  TRP42       0.1605
      3  C        -13.6160   37.3220   49.1740 C.2    42  TRP42       0.2264
      4  O        -12.8320   38.1230   48.6670 O.2    42  TRP42      -0.2867
      5  CB       -15.9590   37.7940   49.8950 C.3    42  TRP42       0.0550
      6  CG       -15.7230   39.2450   50.2050 C.ar   42  TRP42       0.0003
      7  CD1      -16.2400   40.3200   49.5390 C.ar   42  TRP42       0.0946
      8  CD2      -14.8760   39.7790   51.2300 C.ar   42  TRP42       0.0152
      9  NE1      -15.7660   41.4910   50.0890 N.ar   42  TRP42      -0.2442
     10  CE2      -14.9270   41.1870   51.1260 C.ar   42  TRP42       0.0810
     11  CE3      -14.0770   39.2050   52.2250 C.ar   42  TRP42       0.0012
     12  CZ2      -14.2070   42.0300   51.9800 C.ar   42  TRP42       0.0191
     13  CZ3      -13.3620   40.0430   53.0750 C.ar   42  TRP42       0.0001
     14  CH2      -13.4330   41.4420   52.9450 C.ar   42  TRP42       0.0015
     15  N        -10.2840   38.8220   46.8100 N.3    46  ARG46      -0.1231
     16  CA        -9.5790   40.0100   47.3070 C.3    46  ARG46       0.1694
     17  C         -8.1940   39.7930   47.9070 C.2    46  ARG46       0.2592
     18  O         -7.4160   40.7440   48.0290 O.2    46  ARG46      -0.2718
     19  CB       -10.4470   40.7400   48.3340 C.3    46  ARG46       0.0321
     20  CG       -11.7980   41.1060   47.7900 C.3    46  ARG46       0.0489
     21  CD       -12.6370   41.8460   48.7960 C.3    46  ARG46       0.2205
     22  NE       -14.0070   41.9750   48.3070 N.pl3  46  ARG46      -0.0865
     23  CZ       -14.3390   42.5080   47.1350 C.cat  46  ARG46       0.5346
     24  NH1      -13.3980   42.9730   46.3220 N.pl3  46  ARG46       0.1354
     25  NH2      -15.6130   42.5670   46.7710 N.pl3  46  ARG46       0.1354
     26  N         -7.8810   38.5520   48.2690 N.am   47  THR47      -0.1953
     27  CA        -6.5900   38.2430   48.8810 C.3    47  THR47       0.1897
     28  C         -5.8230   37.1620   48.1390 C.2    47  THR47       0.2313
     29  O         -4.5820   37.1560   48.1550 O.2    47  THR47      -0.2863
     30  CB        -6.7660   37.7650   50.3370 C.3    47  THR47       0.1794
     31  OG1       -7.3280   36.4420   50.3460 O.3    47  THR47      -0.2208
     32  CG2       -7.7000   38.7070   51.0950 C.3    47  THR47       0.0378
     33  N          7.4900   41.3820   58.8820 N.3   122  CYS122     -0.1235
     34  CA         7.4280   40.4970   57.7500 C.3   122  CYS122      0.1677
     35  C          8.7090   40.4220   56.8780 C.2   122  CYS122      0.2270
     36  O          8.9660   39.3910   56.2490 O.2   122  CYS122     -0.2867
     37  CB         6.1680   40.9010   56.9700 C.3   122  CYS122      0.0956
     38  SG         4.7440   41.3030   58.1490 S.3   122  CYS122     -0.0801
     39  N        -12.8140   41.0390   60.7660 N.3   161  ARG161     -0.1231
     40  CA       -13.0380   40.8240   59.3390 C.3   161  ARG161      0.1694
     41  C        -11.9780   41.4840   58.4800 C.2   161  ARG161      0.2592
     42  O        -11.9850   41.3570   57.2600 O.2   161  ARG161     -0.2718
     43  CB       -14.4190   41.3390   58.9290 C.3   161  ARG161      0.0321
     44  CG       -14.6540   42.8040   59.1890 C.3   161  ARG161      0.0489
     45  CD       -16.0210   43.2590   58.6610 C.3   161  ARG161      0.2205
     46  NE       -16.1170   43.1960   57.2020 N.pl3 161  ARG161     -0.0865
     47  CZ       -16.4630   42.1120   56.5080 C.cat 161  ARG161      0.5346
     48  NH1      -16.7590   40.9780   57.1360 N.pl3 161  ARG161      0.1354
     49  NH2      -16.5160   42.1630   55.1810 N.pl3 161  ARG161      0.1354
     50  N        -11.0580   42.1870   59.1250 N.am  162  GLY162     -0.1957
     51  CA       -10.0010   42.8380   58.3840 C.3   162  GLY162      0.1869
     52  C         -8.7720   41.9600   58.2050 C.2   162  GLY162      0.2309
     53  O         -7.9410   42.2330   57.3460 O.2   162  GLY162     -0.2863
     54  N         -8.6260   36.1180   58.1400 N.3   165  PHE165     -0.1227
     55  CA        -8.3750   35.1770   57.0450 C.3   165  PHE165      0.1736
     56  C         -7.0160   35.4290   56.3850 C.2   165  PHE165      0.2595
     57  O         -6.6440   34.7620   55.4130 O.2   165  PHE165     -0.2718
     58  CB        -9.4790   35.3300   56.0030 C.3   165  PHE165      0.0547
     59  CG        -9.8090   36.7660   55.6970 C.ar  165  PHE165     -0.0202
     60  CD1       -8.9710   37.5330   54.8990 C.ar  165  PHE165     -0.0042
     61  CD2      -10.9260   37.3710   56.2690 C.ar  165  PHE165     -0.0042
     62  CE1       -9.2360   38.8840   54.6760 C.ar  165  PHE165     -0.0003
     63  CE2      -11.1990   38.7170   56.0520 C.ar  165  PHE165     -0.0003
     64  CZ       -10.3500   39.4780   55.2540 C.ar  165  PHE165     -0.0000
     65  N         -6.2730   36.3910   56.9170 N.am  166  ILE166     -0.1966
     66  CA        -4.9770   36.7410   56.3480 C.3   166  ILE166      0.1727
     67  C         -3.7790   35.9640   56.8810 C.2   166  ILE166      0.2616
     68  O         -3.0650   35.3240   56.1140 O.2   166  ILE166     -0.2715
     69  CB        -4.6570   38.2510   56.5380 C.3   166  ILE166      0.0290
     70  CG1       -5.7290   39.1180   55.8650 C.3   166  ILE166      0.0022
     71  CG2       -3.2690   38.5620   55.9590 C.3   166  ILE166      0.0023
     72  CD1       -5.7210   39.0410   54.3680 C.3   166  ILE166      0.0001
     73  N         -3.5610   36.0320   58.1900 N.am  167  PHE167     -0.1974
     74  CA        -2.4070   35.3900   58.8130 C.3   167  PHE167      0.1639
     75  C         -2.4960   33.8880   59.0870 C.2   167  PHE167      0.2290
     76  O         -3.5650   33.3420   59.3840 O.2   167  PHE167     -0.2864
     77  CB        -2.0490   36.1540   60.0920 C.3   167  PHE167      0.0560
     78  CG        -1.7960   37.6280   59.8560 C.ar  167  PHE167     -0.0200
     79  CD1       -2.7010   38.5860   60.3010 C.ar  167  PHE167     -0.0042
     80  CD2       -0.6530   38.0530   59.1780 C.ar  167  PHE167     -0.0042
     81  CE1       -2.4700   39.9540   60.0740 C.ar  167  PHE167     -0.0003
     82  CE2       -0.4110   39.4180   58.9430 C.ar  167  PHE167     -0.0003
     83  CZ        -1.3210   40.3650   59.3920 C.ar  167  PHE167     -0.0000
     84  N          0.4500   47.6920   60.8520 N.3   199  ILE199     -0.1245
     85  CA         0.4310   46.2850   61.2410 C.3   199  ILE199      0.1561
     86  C          1.0190   46.3140   62.6340 C.2   199  ILE199      0.2260
     87  O          2.1980   46.6120   62.8030 O.2   199  ILE199     -0.2867
     88  CB         1.3020   45.4070   60.3280 C.3   199  ILE199      0.0252
     89  CG1        0.7800   45.4720   58.8860 C.3   199  ILE199      0.0019
     90  CG2        1.2710   43.9670   60.8210 C.3   199  ILE199      0.0019
     91  CD1        1.7520   44.9160   57.8680 C.3   199  ILE199      0.0001
     92  N         -4.5720   44.9150   61.4820 N.3   221  LEU221     -0.1245
     93  CA        -4.0430   45.2730   60.1730 C.3   221  LEU221      0.1561
     94  C         -4.8410   46.3740   59.4900 C.2   221  LEU221      0.2260
     95  O         -6.0670   46.2980   59.3790 O.2   221  LEU221     -0.2867
     96  CB        -4.0150   44.0480   59.2550 C.3   221  LEU221      0.0270
     97  CG        -3.8070   44.3200   57.7580 C.3   221  LEU221      0.0019
     98  CD1       -2.4040   44.8350   57.5170 C.3   221  LEU221      0.0001
     99  CD2       -4.0480   43.0520   56.9550 C.3   221  LEU221      0.0001
    100  N         -5.2660   47.1110   56.3830 N.3   223  GLY223     -0.1210
    101  CA        -5.1310   46.6180   55.0240 C.3   223  GLY223      0.1940
    102  C         -4.8820   47.6120   53.9030 C.2   223  GLY223      0.2453
    103  O         -3.8490   47.5490   53.2450 O.2   223  GLY223     -0.2732
    104  N         -5.8140   48.5440   53.6580 N.am  224  PRO224     -0.2728
    105  CA        -5.6590   49.5390   52.5870 C.3   224  PRO224      0.1401
    106  C         -4.3300   50.2820   52.6200 C.2   224  PRO224      0.2269
    107  O         -3.6870   50.4700   51.5820 O.2   224  PRO224     -0.2865
    108  CB        -6.8480   50.4720   52.8060 C.3   224  PRO224      0.0296
    109  CG        -7.8960   49.5350   53.3770 C.3   224  PRO224      0.0237
    110  CD        -7.0870   48.7330   54.3740 C.3   224  PRO224      0.0939
    111  N         -1.4940   49.3110   53.9410 N.3   226  VAL226     -0.1231
    112  CA        -0.4170   48.3930   53.5780 C.3   226  VAL226      0.1692
    113  C         -0.4750   48.1010   52.0860 C.2   226  VAL226      0.2592
    114  O          0.5390   48.1600   51.3910 O.2   226  VAL226     -0.2718
    115  CB        -0.5220   47.0630   54.3710 C.3   226  VAL226      0.0266
    116  CG1        0.5510   46.0840   53.9080 C.3   226  VAL226      0.0020
    117  CG2       -0.3610   47.3450   55.8510 C.3   226  VAL226      0.0020
    118  N         -1.6780   47.8140   51.5980 N.am  227  PHE227     -0.1976
    119  CA        -1.8780   47.5150   50.1890 C.3   227  PHE227      0.1639
    120  C         -1.2660   48.6190   49.3210 C.2   227  PHE227      0.2290
    121  O         -0.4180   48.3510   48.4670 O.2   227  PHE227     -0.2864
    122  CB        -3.3790   47.3720   49.8840 C.3   227  PHE227      0.0560
    123  CG        -3.6700   46.7680   48.5290 C.ar  227  PHE227     -0.0200
    124  CD1       -4.2460   45.5030   48.4230 C.ar  227  PHE227     -0.0042
    125  CD2       -3.3410   47.4500   47.3590 C.ar  227  PHE227     -0.0042
    126  CE1       -4.4840   44.9270   47.1720 C.ar  227  PHE227     -0.0003
    127  CE2       -3.5760   46.8800   46.1080 C.ar  227  PHE227     -0.0003
    128  CZ        -4.1480   45.6140   46.0200 C.ar  227  PHE227     -0.0000
    129  N          6.7300   38.8510   49.1550 N.3   258  HIS258     -0.1241
    130  CA         6.1120   38.4130   50.3940 C.3   258  HIS258      0.1621
    131  C          4.6780   38.0360   50.0110 C.2   258  HIS258      0.2264
    132  O          4.0390   38.7410   49.2280 O.2   258  HIS258     -0.2867
    133  CB         6.0910   39.5610   51.4070 C.3   258  HIS258      0.0745
    134  CG         5.3030   39.2580   52.6380 C.ar  258  HIS258      0.0817
    135  ND1        5.5680   38.1680   53.4380 N.ar  258  HIS258     -0.2268
    136  CD2        4.2510   39.8940   53.2040 C.ar  258  HIS258      0.1154
    137  CE1        4.7130   38.1460   54.4440 C.ar  258  HIS258      0.1986
    138  NE2        3.9030   39.1820   54.3250 N.ar  258  HIS258     -0.2212
    139  N          1.6860   38.4980   50.9060 N.3   260  ALA260     -0.1231
    140  CA         0.7620   39.3230   51.6750 C.3   260  ALA260      0.1694
    141  C         -0.6360   39.3340   51.0880 C.2   260  ALA260      0.2592
    142  O         -1.6240   39.2370   51.8090 O.2   260  ALA260     -0.2718
    143  CB         1.3000   40.7820   51.7550 C.3   260  ALA260      0.0304
    144  N         -0.7030   39.4680   49.7700 N.am  261  ASN261     -0.1974
    145  CA        -1.9660   39.5390   49.0680 C.3   261  ASN261      0.1688
    146  C         -1.6490   39.3150   47.6050 C.2   261  ASN261      0.2292
    147  O         -0.7690   39.9650   47.0500 O.2   261  ASN261     -0.2864
    148  CB        -2.5860   40.9310   49.2880 C.3   261  ASN261      0.1181
    149  CG        -3.8800   41.1290   48.5210 C.2   261  ASN261      0.2629
    150  OD1       -3.8960   41.0750   47.2960 O.2   261  ASN261     -0.2716
    151  ND2       -4.9700   41.3650   49.2450 N.am  261  ASN261     -0.0877
    152  N         -3.2560   40.1630   44.9590 N.3   263  ARG263     -0.1231
    153  CA        -3.5020   41.3220   44.1120 C.3   263  ARG263      0.1694
    154  C         -2.3640   42.3310   44.1730 C.2   263  ARG263      0.2591
    155  O         -2.0530   42.9710   43.1730 O.2   263  ARG263     -0.2718
    156  CB        -4.8430   41.9820   44.4670 C.3   263  ARG263      0.0321
    157  CG        -6.0340   41.0640   44.1900 C.3   263  ARG263      0.0489
    158  CD        -7.3710   41.7910   44.2630 C.3   263  ARG263      0.2205
    159  NE        -7.6010   42.4100   45.5660 N.pl3 263  ARG263     -0.0865
    160  CZ        -7.6860   43.7230   45.7640 C.cat 263  ARG263      0.5346
    161  NH1       -7.5590   44.5560   44.7360 N.pl3 263  ARG263      0.1354
    162  NH2       -7.9130   44.2050   46.9830 N.pl3 263  ARG263      0.1354
    163  N         -1.7330   42.4610   45.3390 N.am  264  ILE264     -0.1980
    164  CA        -0.6100   43.3830   45.4750 C.3   264  ILE264      0.1595
    165  C          0.5410   42.8640   44.6250 C.2   264  ILE264      0.2287
    166  O          1.2110   43.6180   43.9220 O.2   264  ILE264     -0.2864
    167  CB        -0.0840   43.4730   46.9320 C.3   264  ILE264      0.0276
    168  CG1       -1.1350   44.0990   47.8470 C.3   264  ILE264      0.0022
    169  CG2        1.2000   44.3070   46.9590 C.3   264  ILE264      0.0022
    170  CD1       -0.7980   43.9960   49.3180 C.3   264  ILE264      0.0001
    171  N         -0.7070   34.4570   54.7650 N.3   289  ASN289     -0.1240
    172  CA         0.4130   35.3430   55.0740 C.3   289  ASN289      0.1653
    173  C          1.1120   34.8630   56.3500 C.2   289  ASN289      0.2266
    174  O          0.6130   35.0630   57.4510 O.2   289  ASN289     -0.2867
    175  CB        -0.1030   36.7640   55.2840 C.3   289  ASN289      0.1155
    176  CG         1.0040   37.7570   55.5390 C.2   289  ASN289      0.2627
    177  OD1        2.1210   37.3910   55.9130 O.2   289  ASN289     -0.2716
    178  ND2        0.6920   39.0350   55.3540 N.am  289  ASN289     -0.0877
    179  N          8.1010   42.6820   52.5250 N.3   319  TYR319     -0.1227
    180  CA         7.4850   43.9360   52.9230 C.3   319  TYR319      0.1740
    181  C          6.4290   43.6370   53.9690 C.2   319  TYR319      0.2635
    182  O          5.7490   42.6070   53.8940 O.2   319  TYR319     -0.2714
    183  CB         6.8590   44.6400   51.7140 C.3   319  TYR319      0.0548
    184  CG         5.7900   43.8460   50.9850 C.ar  319  TYR319     -0.0200
    185  CD1        4.4600   43.8660   51.4110 C.ar  319  TYR319     -0.0009
    186  CD2        6.1080   43.0940   49.8520 C.ar  319  TYR319     -0.0009
    187  CE1        3.4720   43.1630   50.7190 C.ar  319  TYR319      0.0417
    188  CE2        5.1290   42.3830   49.1560 C.ar  319  TYR319      0.0417
    189  CZ         3.8140   42.4220   49.5920 C.ar  319  TYR319      0.1957
    190  OH         2.8390   41.7220   48.9060 O.3   319  TYR319     -0.2866
    191  N          6.2990   44.5340   54.9450 N.am  320  GLY320     -0.1732
    192  CA         5.3300   44.3220   55.9970 C.2   320  GLY320      0.1340
    193  C          5.5090   45.1540   57.2520 C.2   320  GLY320      0.2521
    194  O          5.9970   46.2880   57.2010 O.2   320  GLY320     -0.2816
@<TRIPOS>BOND
     1   155   154    2
     2   166   165    2
     3   153   154    1
     4   153   156    1
     5   153   152    1
     6   154   163   am
     7   157   158    1
     8   157   156    1
     9   158   159    1
    10   165   164    1
    11   161   160    1
    12   163   164    1
    13   164   167    1
    14   159   160    2
    15   160   162    1
    16   128   127   ar
    17   128   126   ar
    18   127   125   ar
    19    24    23    1
    20    25    23    1
    21    15    16    1
    22   167   169    1
    23   167   168    1
    24   147   146    2
    25    23    22    2
    26   126   124   ar
    27   150   149    2
    28    16    17    1
    29    16    19    1
    30   125   123   ar
    31   146   145    1
    32    20    19    1
    33    20    21    1
    34   168   170    1
    35    17    18    2
    36    17    26   am
    37    28    29    2
    38    28    27    1
    39    26    27    1
    40    22    21    1
    41     1     2    1
    42   124   123   ar
    43   121   120    2
    44   149   151   am
    45   149   148    1
    46   123   122    1
    47     4     3    2
    48     2     3    1
    49     2     5    1
    50    27    30    1
    51   190   189    1
    52   145   148    1
    53   145   144    1
    54   129   130    1
    55   188   189   ar
    56   188   186   ar
    57   132   131    2
    58   120   119    1
    59     7     9   ar
    60     7     6   ar
    61   189   187   ar
    62   144   141   am
    63   186   184   ar
    64   122   119    1
    65     5     6    1
    66   131   130    1
    67     9    10   ar
    68   119   118    1
    69     6     8   ar
    70    30    31    1
    71    30    32    1
    72   130   133    1
    73   187   185   ar
    74   139   140    1
    75   184   185   ar
    76   184   183    1
    77   141   140    1
    78   141   142    2
    79    10     8   ar
    80    10    12   ar
    81     8    11   ar
    82   114   113    2
    83   133   134    1
    84   107   106    2
    85   118   113   am
    86   140   143    1
    87   183   180    1
    88    12    14   ar
    89   113   112    1
    90    11    13   ar
    91   179   180    1
    92   105   106    1
    93   105   108    1
    94   105   104    1
    95   134   136   ar
    96   134   135   ar
    97   108   109    1
    98   180   181    1
    99    14    13   ar
   100   136   138   ar
   101   103   102    2
   102   109   110    1
   103   135   137   ar
   104   112   111    1
   105   112   115    1
   106   104   102   am
   107   104   110    1
   108   182   181    2
   109   102   101    1
   110   116   115    1
   111   181   191    1
   112   138   137   ar
   113    72    70    1
   114   115   117    1
   115    62    60   ar
   116    62    64   ar
   117   171   172    1
   118    60    59   ar
   119   191   192    2
   120   101   100    1
   121   172   175    1
   122   172   173    1
   123    49    47    1
   124    64    63   ar
   125   175   176    1
   126   178   176   am
   127    57    56    2
   128   176   177    2
   129    59    58    1
   130    59    61   ar
   131    70    69    1
   132    71    69    1
   133   192   193    1
   134    58    55    1
   135    63    61   ar
   136    68    67    2
   137    36    35    2
   138    66    69    1
   139    66    67    1
   140    66    65    1
   141   173   174    2
   142    56    65   am
   143    56    55    1
   144    47    48    1
   145    47    46    2
   146    35    34    1
   147    67    73   am
   148    99    97    1
   149    37    34    1
   150    37    38    1
   151    55    54    1
   152   194   193    2
   153    46    45    1
   154    42    41    2
   155    53    52    2
   156    98    97    1
   157    34    33    1
   158    97    96    1
   159    91    89    1
   160    73    74    1
   161    52    51    1
   162    51    50    1
   163    41    50   am
   164    41    40    1
   165    45    44    1
   166    74    75    1
   167    74    77    1
   168    89    88    1
   169    43    44    1
   170    43    40    1
   171    82    80   ar
   172    82    83   ar
   173    75    76    2
   174    80    78   ar
   175    96    93    1
   176    40    39    1
   177    95    94    2
   178    83    81   ar
   179    94    93    1
   180    78    77    1
   181    78    79   ar
   182    81    79   ar
   183    93    92    1
   184    88    90    1
   185    88    85    1
   186    84    85    1
   187    85    86    1
   188    86    87    2
