@<TRIPOS>MOLECULE
tmp/1hzxB00.pdb
 78 72 0 0 0
SMALL
GASTEIGER

@<TRIPOS>ATOM
      1  N         47.4020   20.0600    9.0720 N.3    50  LEU50      -0.1245
      2  CA        46.2610   19.9710    8.1860 C.3    50  LEU50       0.1561
      3  C         44.9870   20.4190    8.9000 C.2    50  LEU50       0.2260
      4  O         44.2230   21.2300    8.3820 O.2    50  LEU50      -0.2867
      5  CB        46.0990   18.5360    7.6610 C.3    50  LEU50       0.0270
      6  CG        45.4330   18.4010    6.2760 C.3    50  LEU50       0.0019
      7  CD1       46.2570   17.5690    5.3720 C.3    50  LEU50       0.0001
      8  CD2       44.1640   17.7000    6.3820 C.3    50  LEU50       0.0001
      9  N         26.2860   10.5980    6.4930 N.3   231  ILE231     -0.1245
     10  CA        27.6740   10.2010    6.3400 C.3   231  ILE231      0.1561
     11  C         28.4850   10.6460    7.5320 C.2   231  ILE231      0.2260
     12  O         29.2440    9.8680    8.0970 O.2   231  ILE231     -0.2867
     13  CB        28.2850   10.8290    5.0980 C.3   231  ILE231      0.0252
     14  CG1       27.5830   10.2830    3.8550 C.3   231  ILE231      0.0019
     15  CG2       29.7840   10.5900    5.0800 C.3   231  ILE231      0.0019
     16  CD1       27.5410    8.7750    3.7980 C.3   231  ILE231      0.0001
     17  N         30.9870    8.5510    9.8830 N.3   235  ALA235     -0.1245
     18  CA        32.3640    9.0000   10.0370 C.3   235  ALA235      0.1562
     19  C         32.7060    9.1190   11.5180 C.2   235  ALA235      0.2260
     20  O         33.8200    8.7950   11.9370 O.2   235  ALA235     -0.2867
     21  CB        32.5490   10.3410    9.3360 C.3   235  ALA235      0.0290
     22  N         41.6660   11.9690   14.0190 N.3   272  THR272     -0.1218
     23  CA        41.2490   12.4140   12.6850 C.3   272  THR272      0.1862
     24  C         39.8930   13.1230   12.8660 C.2   272  THR272      0.2287
     25  O         39.3700   13.7730   11.9540 O.2   272  THR272     -0.2866
     26  CB        41.1060   11.2210   11.6300 C.3   272  THR272      0.1770
     27  OG1       40.1570   10.2290   12.0760 O.3   272  THR272     -0.2211
     28  CG2       42.4560   10.5720   11.3920 C.3   272  THR272      0.0375
     29  N         39.5960   16.5210   11.8910 N.3   275  VAL275     -0.1231
     30  CA        39.7570   16.8950   10.4980 C.3   275  VAL275      0.1692
     31  C         38.8050   16.2880    9.4650 C.2   275  VAL275      0.2592
     32  O         38.4850   16.9320    8.4710 O.2   275  VAL275     -0.2718
     33  CB        41.2580   16.6490   10.0860 C.3   275  VAL275      0.0266
     34  CG1       41.5840   15.1710   10.1650 C.3   275  VAL275      0.0020
     35  CG2       41.5420   17.1930    8.7110 C.3   275  VAL275      0.0020
     36  N         38.3230   15.0780    9.6890 N.am  276  TYR276     -0.1976
     37  CA        37.4460   14.4740    8.7000 C.3   276  TYR276      0.1639
     38  C         36.1490   15.2230    8.3790 C.2   276  TYR276      0.2290
     39  O         35.6730   15.1830    7.2430 O.2   276  TYR276     -0.2864
     40  CB        37.1230   13.0340    9.0970 C.3   276  TYR276      0.0560
     41  CG        36.0930   12.8940   10.1890 C.ar  276  TYR276     -0.0198
     42  CD1       34.7290   12.9950    9.9070 C.ar  276  TYR276     -0.0009
     43  CD2       36.4800   12.6420   11.5020 C.ar  276  TYR276     -0.0009
     44  CE1       33.7800   12.8440   10.9090 C.ar  276  TYR276      0.0417
     45  CE2       35.5380   12.4910   12.5130 C.ar  276  TYR276      0.0417
     46  CZ        34.1920   12.5930   12.2120 C.ar  276  TYR276      0.1957
     47  OH        33.2670   12.4550   13.2200 O.3   276  TYR276     -0.2866
     48  N         36.0690   17.6260    5.2990 N.3   279  VAL279     -0.1231
     49  CA        36.2040   16.8620    4.0640 C.3   279  VAL279      0.1692
     50  C         34.8320   16.4070    3.5730 C.2   279  VAL279      0.2591
     51  O         34.4760   16.6030    2.4120 O.2   279  VAL279     -0.2718
     52  CB        37.0790   15.6320    4.2810 C.3   279  VAL279      0.0266
     53  CG1       37.3520   14.9520    2.9680 C.3   279  VAL279      0.0020
     54  CG2       38.3600   16.0450    4.9360 C.3   279  VAL279      0.0020
     55  N         34.0660   15.7930    4.4660 N.am  280  ILE280     -0.1980
     56  CA        32.7290   15.3280    4.1150 C.3   280  ILE280      0.1595
     57  C         31.9480   16.5300    3.5950 C.2   280  ILE280      0.2287
     58  O         31.2050   16.4370    2.6150 O.2   280  ILE280     -0.2864
     59  CB        31.9590   14.7720    5.3510 C.3   280  ILE280      0.0276
     60  CG1       32.7570   13.6640    6.0340 C.3   280  ILE280      0.0022
     61  CG2       30.6110   14.2170    4.9160 C.3   280  ILE280      0.0022
     62  CD1       32.0180   13.0180    7.2090 C.3   280  ILE280      0.0001
     63  N         33.1950   17.6350    0.2020 N.3   283  MET283     -0.1230
     64  CA        32.9220   16.5940   -0.7790 C.3   283  MET283      0.1702
     65  C         31.4340   16.4250   -1.0650 C.2   283  MET283      0.2592
     66  O         31.0370   16.1160   -2.1890 O.2   283  MET283     -0.2718
     67  CB        33.4850   15.2570   -0.2960 C.3   283  MET283      0.0401
     68  CG        34.9460   15.2860    0.0100 C.3   283  MET283      0.0596
     69  SD        35.7770   16.0320   -1.3560 S.3   283  MET283     -0.1393
     70  CE        35.6840   14.7100   -2.5280 C.3   283  MET283      0.0692
     71  N         30.6130   16.6350   -0.0440 N.am  284  MET284     -0.1979
     72  CA        29.1720   16.4480   -0.1750 C.3   284  MET284      0.1605
     73  C         28.2890   17.6910   -0.1070 C.2   284  MET284      0.2287
     74  O         27.0750   17.5840    0.0870 O.2   284  MET284     -0.2864
     75  CB        28.6890   15.4660    0.8830 C.3   284  MET284      0.0413
     76  CG        29.2880   14.1050    0.7700 C.3   284  MET284      0.0598
     77  SD        28.7520   13.1850    2.1750 S.3   284  MET284     -0.1393
     78  CE        27.0810   12.7190    1.6770 C.3   284  MET284      0.0692
@<TRIPOS>BOND
     1    70    69    1
     2    66    65    2
     3    69    68    1
     4    65    64    1
     5    65    71   am
     6    64    67    1
     7    64    63    1
     8    67    68    1
     9    72    73    1
    10    72    71    1
    11    72    75    1
    12    73    74    2
    13    76    75    1
    14    76    77    1
    15    78    77    1
    16    51    50    2
    17    58    57    2
    18    53    52    1
    19    50    49    1
    20    50    55   am
    21    57    56    1
    22    16    14    1
    23    14    13    1
    24    49    52    1
    25    49    48    1
    26    56    55    1
    27    56    59    1
    28    52    54    1
    29    61    59    1
    30    15    13    1
    31    13    10    1
    32    59    60    1
    33     7     6    1
    34    60    62    1
    35     6     8    1
    36     6     5    1
    37    10     9    1
    38    10    11    1
    39    39    38    2
    40    11    12    2
    41     5     2    1
    42     2     3    1
    43     2     1    1
    44    38    37    1
    45     4     3    2
    46    32    31    2
    47    37    40    1
    48    37    36    1
    49    35    33    1
    50    40    41    1
    51    21    18    1
    52    31    36   am
    53    31    30    1
    54    17    18    1
    55    42    41   ar
    56    42    44   ar
    57    18    19    1
    58    33    34    1
    59    33    30    1
    60    41    43   ar
    61    30    29    1
    62    44    46   ar
    63    28    26    1
    64    43    45   ar
    65    19    20    2
    66    26    27    1
    67    26    23    1
    68    25    24    2
    69    46    45   ar
    70    46    47    1
    71    23    24    1
    72    23    22    1
