@<TRIPOS>MOLECULE
tmp/1i05A00.pdb
 149 137 0 0 0
SMALL
GASTEIGER

@<TRIPOS>ATOM
      1  N         30.4580   11.7340   30.8020 N.3    37  PHE37      -0.1241
      2  CA        29.1000   12.2090   30.9810 C.3    37  PHE37       0.1605
      3  C         28.5750   12.2190   32.4050 C.2    37  PHE37       0.2264
      4  O         27.3920   12.4800   32.6350 O.2    37  PHE37      -0.2867
      5  CB        28.1670   11.4470   30.0420 C.3    37  PHE37       0.0534
      6  CG        28.3980   11.7750   28.5970 C.ar   37  PHE37      -0.0203
      7  CD1       29.5130   11.2780   27.9270 C.ar   37  PHE37      -0.0042
      8  CD2       27.5410   12.6380   27.9220 C.ar   37  PHE37      -0.0042
      9  CE1       29.7740   11.6380   26.6050 C.ar   37  PHE37      -0.0003
     10  CE2       27.7950   13.0050   26.5990 C.ar   37  PHE37      -0.0003
     11  CZ        28.9130   12.5040   25.9410 C.ar   37  PHE37      -0.0000
     12  N         28.2160   14.2500   34.7140 N.3    39  LEU39      -0.1245
     13  CA        28.2430   15.6900   34.9390 C.3    39  LEU39       0.1561
     14  C         27.2180   16.1540   35.9650 C.2    39  LEU39       0.2260
     15  O         26.0560   15.7310   35.9480 O.2    39  LEU39      -0.2867
     16  CB        28.0110   16.4220   33.6100 C.3    39  LEU39       0.0270
     17  CG        28.9670   15.9960   32.4890 C.3    39  LEU39       0.0019
     18  CD1       28.4940   16.5330   31.1480 C.3    39  LEU39       0.0001
     19  CD2       30.3700   16.4900   32.8120 C.3    39  LEU39       0.0001
     20  N         25.0930   19.0500   37.0570 N.3    41  LEU41      -0.1245
     21  CA        24.4940   20.3080   36.6360 C.3    41  LEU41       0.1561
     22  C         24.3760   21.2380   37.8390 C.2    41  LEU41       0.2260
     23  O         24.0560   20.8000   38.9530 O.2    41  LEU41      -0.2867
     24  CB        23.1100   20.0390   36.0410 C.3    41  LEU41       0.0270
     25  CG        22.3000   21.2020   35.4680 C.3    41  LEU41       0.0019
     26  CD1       23.0440   21.8340   34.3070 C.3    41  LEU41       0.0001
     27  CD2       20.9470   20.6820   35.0160 C.3    41  LEU41       0.0001
     28  N         21.1290   26.5530   34.8720 N.3    44  ILE44      -0.1245
     29  CA        20.6710   26.6740   33.5030 C.3    44  ILE44       0.1561
     30  C         20.2700   28.1320   33.3080 C.2    44  ILE44       0.2260
     31  O         19.5160   28.6840   34.1080 O.2    44  ILE44      -0.2867
     32  CB        19.4340   25.7990   33.2090 C.3    44  ILE44       0.0252
     33  CG1       19.7960   24.3150   33.2830 C.3    44  ILE44       0.0019
     34  CG2       18.8950   26.1270   31.8170 C.3    44  ILE44       0.0019
     35  CD1       18.6150   23.3970   33.0100 C.3    44  ILE44       0.0001
     36  N         24.4940   25.9920   29.9790 N.3    53  LEU53      -0.1245
     37  CA        24.5390   24.9450   30.9930 C.3    53  LEU53       0.1561
     38  C         25.8490   25.0030   31.7600 C.2    53  LEU53       0.2260
     39  O         26.9220   24.9970   31.1620 O.2    53  LEU53      -0.2867
     40  CB        24.4230   23.5740   30.3290 C.3    53  LEU53       0.0270
     41  CG        23.2700   23.3700   29.3490 C.3    53  LEU53       0.0019
     42  CD1       23.4950   22.0770   28.5860 C.3    53  LEU53       0.0001
     43  CD2       21.9460   23.3590   30.0980 C.3    53  LEU53       0.0001
     44  N         28.1650   23.1560   34.7130 N.3    55  PHE55      -0.1241
     45  CA        28.3500   21.9360   35.4850 C.3    55  PHE55       0.1605
     46  C         29.6970   21.9670   36.1760 C.2    55  PHE55       0.2264
     47  O         30.4610   22.9270   36.0890 O.2    55  PHE55      -0.2867
     48  CB        28.4260   20.6690   34.6060 C.3    55  PHE55       0.0534
     49  CG        27.3910   20.5590   33.5190 C.ar   55  PHE55      -0.0203
     50  CD1       27.5390   21.2520   32.3200 C.ar   55  PHE55      -0.0042
     51  CD2       26.3280   19.6680   33.6500 C.ar   55  PHE55      -0.0042
     52  CE1       26.6480   21.0510   31.2620 C.ar   55  PHE55      -0.0003
     53  CE2       25.4290   19.4610   32.5990 C.ar   55  PHE55      -0.0003
     54  CZ        25.5930   20.1530   31.4020 C.ar   55  PHE55      -0.0000
     55  N         28.8780   25.1320   28.8970 N.3    68  MET68      -0.1245
     56  CA        28.6150   24.8830   27.4890 C.3    68  MET68       0.1570
     57  C         27.2790   25.4940   27.1110 C.2    68  MET68       0.2261
     58  O         26.4490   25.7810   27.9720 O.2    68  MET68      -0.2867
     59  CB        28.6300   23.3820   27.1790 C.3    68  MET68       0.0387
     60  CG        27.7070   22.5250   28.0210 C.3    68  MET68       0.0595
     61  SD        27.8140   20.7740   27.5280 S.3    68  MET68      -0.1393
     62  CE        29.2820   20.2690   28.3830 C.3    68  MET68       0.0692
     63  N         24.1720   20.1460   21.3230 N.3    81  VAL81      -0.1245
     64  CA        25.4200   20.6580   21.8590 C.3    81  VAL81       0.1561
     65  C         26.5600   19.7210   21.5010 C.2    81  VAL81       0.2260
     66  O         26.4010   18.5000   21.5140 O.2    81  VAL81      -0.2867
     67  CB        25.3450   20.8240   23.3970 C.3    81  VAL81       0.0252
     68  CG1       25.0140   19.4950   24.0500 C.3    81  VAL81       0.0019
     69  CG2       26.6600   21.3710   23.9260 C.3    81  VAL81       0.0019
     70  N         29.8090   17.9620   22.4310 N.3    83  TYR83      -0.1241
     71  CA        30.5700   17.5560   23.6020 C.3    83  TYR83       0.1605
     72  C         30.8550   16.0730   23.4310 C.2    83  TYR83       0.2264
     73  O         29.9420   15.2460   23.5180 O.2    83  TYR83      -0.2867
     74  CB        29.7520   17.7940   24.8780 C.3    83  TYR83       0.0534
     75  CG        30.4460   17.3350   26.1390 C.ar   83  TYR83      -0.0201
     76  CD1       31.5350   18.0390   26.6560 C.ar   83  TYR83      -0.0009
     77  CD2       30.0540   16.1610   26.7830 C.ar   83  TYR83      -0.0009
     78  CE1       32.2210   17.5810   27.7800 C.ar   83  TYR83       0.0417
     79  CE2       30.7340   15.6960   27.9090 C.ar   83  TYR83       0.0417
     80  CZ        31.8190   16.4110   28.3990 C.ar   83  TYR83       0.1957
     81  OH        32.5100   15.9430   29.4960 O.3    83  TYR83      -0.2866
     82  N         25.3960   15.9570   20.4030 N.3    87  ASN87      -0.1240
     83  CA        24.2950   15.6160   21.3030 C.3    87  ASN87       0.1653
     84  C         23.0280   16.4070   21.0450 C.2    87  ASN87       0.2266
     85  O         23.0750   17.6060   20.7900 O.2    87  ASN87      -0.2867
     86  CB        24.6790   15.8850   22.7620 C.3    87  ASN87       0.1155
     87  CG        25.9800   15.2330   23.1610 C.2    87  ASN87       0.2627
     88  OD1       26.0250   14.0410   23.4650 O.2    87  ASN87      -0.2716
     89  ND2       27.0580   16.0170   23.1590 N.am   87  ASN87      -0.0877
     90  N         19.0800   16.8470   22.8470 N.3    89  PHE89      -0.1241
     91  CA        18.3220   16.4660   24.0190 C.3    89  PHE89       0.1605
     92  C         16.9950   17.1860   24.1190 C.2    89  PHE89       0.2264
     93  O         16.7950   18.2490   23.5240 O.2    89  PHE89      -0.2867
     94  CB        19.1340   16.6630   25.3100 C.3    89  PHE89       0.0534
     95  CG        19.4150   18.1000   25.6600 C.ar   89  PHE89      -0.0203
     96  CD1       20.6110   18.7040   25.2780 C.ar   89  PHE89      -0.0042
     97  CD2       18.5050   18.8340   26.4130 C.ar   89  PHE89      -0.0042
     98  CE1       20.9020   20.0190   25.6490 C.ar   89  PHE89      -0.0003
     99  CE2       18.7840   20.1480   26.7880 C.ar   89  PHE89      -0.0003
    100  CZ        19.9920   20.7410   26.4040 C.ar   89  PHE89      -0.0000
    101  N         13.3940   17.5310   27.0570 N.3    91  ILE91      -0.1245
    102  CA        13.0100   17.4450   28.4590 C.3    91  ILE91       0.1561
    103  C         11.6370   16.7860   28.4780 C.2    91  ILE91       0.2260
    104  O         10.6090   17.4630   28.4060 O.2    91  ILE91      -0.2867
    105  CB        12.9390   18.8530   29.1040 C.3    91  ILE91       0.0252
    106  CG1       14.3300   19.4950   29.0720 C.3    91  ILE91       0.0019
    107  CG2       12.4300   18.7560   30.5410 C.3    91  ILE91       0.0019
    108  CD1       14.3590   20.9490   29.5090 C.3    91  ILE91       0.0001
    109  N         13.3070   17.7850   37.1350 N.3   100  LEU100     -0.1245
    110  CA        13.4420   17.8920   35.6950 C.3   100  LEU100      0.1561
    111  C         14.0530   16.5920   35.1830 C.2   100  LEU100      0.2260
    112  O         15.0240   16.0770   35.7420 O.2   100  LEU100     -0.2867
    113  CB        14.3290   19.0880   35.3330 C.3   100  LEU100      0.0270
    114  CG        14.4310   19.4420   33.8450 C.3   100  LEU100      0.0019
    115  CD1       14.8490   20.8990   33.6890 C.3   100  LEU100      0.0001
    116  CD2       15.4350   18.5140   33.1590 C.3   100  LEU100      0.0001
    117  N         15.6650   14.7290   31.8390 N.3   102  ALA102     -0.1245
    118  CA        16.2340   14.9910   30.5290 C.3   102  ALA102      0.1562
    119  C         16.5450   13.7000   29.7780 C.2   102  ALA102      0.2260
    120  O         16.8220   12.6640   30.3810 O.2   102  ALA102     -0.2867
    121  CB        17.5050   15.8350   30.6770 C.3   102  ALA102      0.0290
    122  N         18.8710   12.4680   26.4070 N.3   104  LEU104     -0.1245
    123  CA        19.8620   12.8680   25.4270 C.3   104  LEU104      0.1561
    124  C         20.3790   11.7260   24.5680 C.2   104  LEU104      0.2260
    125  O         20.4980   10.5920   25.0270 O.2   104  LEU104     -0.2867
    126  CB        21.0280   13.5550   26.1550 C.3   104  LEU104      0.0270
    127  CG        22.3370   13.8900   25.4260 C.3   104  LEU104      0.0019
    128  CD1       23.0570   15.0260   26.1480 C.3   104  LEU104      0.0001
    129  CD2       23.2260   12.6580   25.3700 C.3   104  LEU104      0.0001
    130  N         21.3650    8.9400   27.1200 N.3   115  LEU115     -0.1245
    131  CA        21.5500    9.2490   28.5200 C.3   115  LEU115      0.1561
    132  C         20.2980    9.9560   29.0140 C.2   115  LEU115      0.2260
    133  O         19.6990   10.7640   28.3010 O.2   115  LEU115     -0.2867
    134  CB        22.7860   10.1390   28.7010 C.3   115  LEU115      0.0270
    135  CG        23.1110   10.6170   30.1190 C.3   115  LEU115      0.0019
    136  CD1       24.5960   10.8800   30.2530 C.3   115  LEU115      0.0001
    137  CD2       22.3150   11.8720   30.4260 C.3   115  LEU115      0.0001
    138  N         17.0600   15.7300   37.5500 N.3   119  TYR119     -0.1241
    139  CA        17.6510   16.8860   38.2060 C.3   119  TYR119      0.1605
    140  C         16.6430   17.4860   39.1700 C.2   119  TYR119      0.2264
    141  O         15.4390   17.4210   38.9330 O.2   119  TYR119     -0.2867
    142  CB        18.0540   17.9040   37.1340 C.3   119  TYR119      0.0534
    143  CG        19.0010   17.3210   36.0980 C.ar  119  TYR119     -0.0201
    144  CD1       20.3750   17.2690   36.3340 C.ar  119  TYR119     -0.0009
    145  CD2       18.5160   16.7470   34.9150 C.ar  119  TYR119     -0.0009
    146  CE1       21.2440   16.6580   35.4280 C.ar  119  TYR119      0.0417
    147  CE2       19.3870   16.1250   33.9960 C.ar  119  TYR119      0.0417
    148  CZ        20.7450   16.0840   34.2680 C.ar  119  TYR119      0.1957
    149  OH        21.6120   15.4280   33.4100 O.3   119  TYR119     -0.2866
@<TRIPOS>BOND
     1    82    83    1
     2    85    84    2
     3    84    83    1
     4    83    86    1
     5    63    64    1
     6    65    66    2
     7    65    64    1
     8    64    67    1
     9    70    71    1
    10    86    87    1
    11    90    91    1
    12    89    87   am
    13    87    88    2
    14    67    69    1
    15    67    68    1
    16    72    73    2
    17    72    71    1
    18    93    92    2
    19    71    74    1
    20    91    92    1
    21    91    94    1
    22   124   125    2
    23   124   123    1
    24    74    75    1
    25    96    98   ar
    26    96    95   ar
    27    94    95    1
    28   129   127    1
    29   127   128    1
    30   127   126    1
    31   123   126    1
    32   123   122    1
    33    98   100   ar
    34    95    97   ar
    35    11    10   ar
    36    11     9   ar
    37    75    76   ar
    38    75    77   ar
    39   100    99   ar
    40    97    99   ar
    41    10     8   ar
    42     9     7   ar
    43    76    78   ar
    44    77    79   ar
    45   101   102    1
    46    57    56    1
    47    57    58    2
    48   130   131    1
    49    59    56    1
    50    59    60    1
    51    56    55    1
    52    61    60    1
    53    61    62    1
    54    78    80   ar
    55    79    80   ar
    56     8     6   ar
    57     7     6   ar
    58   133   132    2
    59    80    81    1
    60   104   103    2
    61   102   103    1
    62   102   105    1
    63   131   134    1
    64   131   132    1
    65    42    41    1
    66     6     5    1
    67   134   135    1
    68   106   105    1
    69   106   108    1
    70   105   107    1
    71    41    43    1
    72    41    40    1
    73   119   120    2
    74   119   118    1
    75    36    37    1
    76     5     2    1
    77   135   136    1
    78   135   137    1
    79    40    37    1
    80   118   121    1
    81   118   117    1
    82     1     2    1
    83     2     3    1
    84    37    38    1
    85    18    17    1
    86    39    38    2
    87    52    54   ar
    88    52    50   ar
    89    54    53   ar
    90    34    32    1
    91    50    49   ar
    92     3     4    2
    93    17    19    1
    94    17    16    1
    95    53    51   ar
    96    35    33    1
    97   116   114    1
    98    32    33    1
    99    32    29    1
   100    30    29    1
   101    30    31    2
   102   149   148    1
   103    29    28    1
   104    49    51   ar
   105    49    48    1
   106    16    13    1
   107   115   114    1
   108   114   113    1
   109   147   148   ar
   110   147   145   ar
   111   148   146   ar
   112    26    25    1
   113    48    45    1
   114    44    45    1
   115    12    13    1
   116   145   143   ar
   117    13    14    1
   118    27    25    1
   119   111   110    1
   120   111   112    2
   121   113   110    1
   122   146   144   ar
   123    25    24    1
   124    45    46    1
   125   110   109    1
   126    15    14    2
   127    24    21    1
   128    47    46    2
   129   143   144   ar
   130   143   142    1
   131    21    20    1
   132    21    22    1
   133   142   139    1
   134   138   139    1
   135    22    23    2
   136   139   140    1
   137   141   140    2
