@<TRIPOS>MOLECULE
tmp/1i06A00.pdb
 149 137 0 0 0
SMALL
GASTEIGER

@<TRIPOS>ATOM
      1  N         30.5420   11.7840   31.0470 N.3    38  PHE38      -0.1241
      2  CA        29.1540   12.2300   31.0900 C.3    38  PHE38       0.1605
      3  C         28.6260   12.2480   32.5090 C.2    38  PHE38       0.2264
      4  O         27.4320   12.4550   32.7230 O.2    38  PHE38      -0.2867
      5  CB        28.2560   11.3790   30.1920 C.3    38  PHE38       0.0534
      6  CG        28.3660   11.7530   28.7590 C.ar   38  PHE38      -0.0203
      7  CD1       29.3990   11.2480   27.9850 C.ar   38  PHE38      -0.0042
      8  CD2       27.5190   12.7130   28.2150 C.ar   38  PHE38      -0.0042
      9  CE1       29.6010   11.6950   26.6940 C.ar   38  PHE38      -0.0003
     10  CE2       27.7060   13.1730   26.9230 C.ar   38  PHE38      -0.0003
     11  CZ        28.7500   12.6630   26.1590 C.ar   38  PHE38      -0.0000
     12  N         28.2690   14.2890   34.8750 N.3    40  LEU40      -0.1245
     13  CA        28.2870   15.7260   35.1100 C.3    40  LEU40       0.1561
     14  C         27.2490   16.1850   36.1300 C.2    40  LEU40       0.2260
     15  O         26.0860   15.7600   36.1320 O.2    40  LEU40      -0.2867
     16  CB        28.0710   16.4650   33.7850 C.3    40  LEU40       0.0270
     17  CG        29.0620   16.1290   32.6670 C.3    40  LEU40       0.0019
     18  CD1       28.5570   16.7000   31.3470 C.3    40  LEU40       0.0001
     19  CD2       30.4340   16.6950   33.0060 C.3    40  LEU40       0.0001
     20  N         25.1390   19.0570   37.1960 N.3    42  LEU42      -0.1245
     21  CA        24.5100   20.3010   36.7680 C.3    42  LEU42       0.1561
     22  C         24.3680   21.2610   37.9510 C.2    42  LEU42       0.2260
     23  O         24.0270   20.8520   39.0720 O.2    42  LEU42      -0.2867
     24  CB        23.1260   20.0080   36.1780 C.3    42  LEU42       0.0270
     25  CG        22.3040   21.1840   35.6380 C.3    42  LEU42       0.0019
     26  CD1       23.0480   21.8250   34.4680 C.3    42  LEU42       0.0001
     27  CD2       20.9190   20.6990   35.1960 C.3    42  LEU42       0.0001
     28  N         21.1240   26.5450   34.9930 N.3    45  ILE45      -0.1245
     29  CA        20.6640   26.6740   33.6280 C.3    45  ILE45       0.1561
     30  C         20.3070   28.1390   33.4760 C.2    45  ILE45       0.2260
     31  O         19.6100   28.7130   34.3140 O.2    45  ILE45      -0.2867
     32  CB        19.4030   25.8230   33.3290 C.3    45  ILE45       0.0252
     33  CG1       19.7350   24.3210   33.3940 C.3    45  ILE45       0.0019
     34  CG2       18.8860   26.1610   31.9360 C.3    45  ILE45       0.0019
     35  CD1       18.5470   23.4100   33.1030 C.3    45  ILE45       0.0001
     36  N         24.5950   26.0910   30.0970 N.3    54  LEU54      -0.1245
     37  CA        24.6450   25.0290   31.0990 C.3    54  LEU54       0.1561
     38  C         25.9400   25.0860   31.9130 C.2    54  LEU54       0.2260
     39  O         27.0310   25.1010   31.3450 O.2    54  LEU54      -0.2867
     40  CB        24.5620   23.6690   30.3950 C.3    54  LEU54       0.0270
     41  CG        23.4460   23.4300   29.3780 C.3    54  LEU54       0.0019
     42  CD1       23.6440   22.0820   28.6950 C.3    54  LEU54       0.0001
     43  CD2       22.1060   23.4760   30.0840 C.3    54  LEU54       0.0001
     44  N         28.1630   23.1840   34.8700 N.3    56  PHE56      -0.1241
     45  CA        28.3390   21.9270   35.5760 C.3    56  PHE56       0.1605
     46  C         29.6640   21.9180   36.3130 C.2    56  PHE56       0.2264
     47  O         30.4540   22.8510   36.2180 O.2    56  PHE56      -0.2867
     48  CB        28.5140   20.7360   34.6100 C.3    56  PHE56       0.0534
     49  CG        27.4410   20.5500   33.5890 C.ar   56  PHE56      -0.0203
     50  CD1       27.4930   21.1900   32.3420 C.ar   56  PHE56      -0.0042
     51  CD2       26.4240   19.6360   33.8300 C.ar   56  PHE56      -0.0042
     52  CE1       26.5370   20.8790   31.3310 C.ar   56  PHE56      -0.0003
     53  CE2       25.4760   19.3220   32.8460 C.ar   56  PHE56      -0.0003
     54  CZ        25.5240   19.9470   31.5980 C.ar   56  PHE56      -0.0000
     55  N         28.8270   24.9990   29.0280 N.3    69  MET69      -0.1245
     56  CA        28.4820   24.6210   27.6540 C.3    69  MET69       0.1570
     57  C         27.2830   25.4400   27.2290 C.2    69  MET69       0.2261
     58  O         26.4980   25.8760   28.0680 O.2    69  MET69      -0.2867
     59  CB        28.0170   23.1690   27.5700 C.3    69  MET69       0.0387
     60  CG        29.0080   22.0890   27.8790 C.3    69  MET69       0.0595
     61  SD        28.1170   20.5450   27.6830 S.3    69  MET69      -0.1393
     62  CE        29.0070   19.4750   28.8130 C.3    69  MET69       0.0692
     63  N         24.2040   20.1550   21.4400 N.3    82  VAL82      -0.1245
     64  CA        25.4610   20.6440   21.9610 C.3    82  VAL82       0.1561
     65  C         26.5730   19.6760   21.6060 C.2    82  VAL82       0.2260
     66  O         26.3940   18.4580   21.6240 O.2    82  VAL82      -0.2867
     67  CB        25.4060   20.8820   23.5090 C.3    82  VAL82       0.0252
     68  CG1       25.1020   19.5880   24.2500 C.3    82  VAL82       0.0019
     69  CG2       26.7210   21.4880   23.9880 C.3    82  VAL82       0.0019
     70  N         29.8750   17.9760   22.5380 N.3    84  TYR84      -0.1241
     71  CA        30.6620   17.6220   23.7130 C.3    84  TYR84       0.1605
     72  C         30.8960   16.1170   23.5970 C.2    84  TYR84       0.2264
     73  O         29.9490   15.3260   23.6900 O.2    84  TYR84      -0.2867
     74  CB        29.8820   17.9610   24.9960 C.3    84  TYR84       0.0534
     75  CG        30.5220   17.4470   26.2700 C.ar   84  TYR84      -0.0201
     76  CD1       31.5110   18.1770   26.9360 C.ar   84  TYR84      -0.0009
     77  CD2       30.1600   16.2090   26.7870 C.ar   84  TYR84      -0.0009
     78  CE1       32.1210   17.6750   28.0880 C.ar   84  TYR84       0.0417
     79  CE2       30.7560   15.7040   27.9250 C.ar   84  TYR84       0.0417
     80  CZ        31.7350   16.4370   28.5740 C.ar   84  TYR84       0.1957
     81  OH        32.3290   15.9360   29.7120 O.3    84  TYR84      -0.2866
     82  N         25.4420   15.9220   20.5400 N.3    88  ASN88      -0.1240
     83  CA        24.3210   15.5580   21.4110 C.3    88  ASN88       0.1653
     84  C         23.0450   16.3410   21.1530 C.2    88  ASN88       0.2266
     85  O         23.0910   17.5380   20.9090 O.2    88  ASN88      -0.2867
     86  CB        24.6530   15.8440   22.8790 C.3    88  ASN88       0.1155
     87  CG        25.9660   15.2660   23.3220 C.2    88  ASN88       0.2627
     88  OD1       26.0770   14.0690   23.5870 O.2    88  ASN88      -0.2716
     89  ND2       26.9730   16.1230   23.4350 N.am   88  ASN88      -0.0877
     90  N         19.1490   16.8720   23.0160 N.3    90  PHE90      -0.1241
     91  CA        18.3860   16.4890   24.1950 C.3    90  PHE90       0.1605
     92  C         17.0390   17.1830   24.3300 C.2    90  PHE90       0.2264
     93  O         16.8290   18.2530   23.8080 O.2    90  PHE90      -0.2867
     94  CB        19.2030   16.6910   25.4910 C.3    90  PHE90       0.0534
     95  CG        19.4980   18.1380   25.8440 C.ar   90  PHE90      -0.0203
     96  CD1       20.6790   18.7500   25.4260 C.ar   90  PHE90      -0.0042
     97  CD2       18.6120   18.8700   26.6320 C.ar   90  PHE90      -0.0042
     98  CE1       20.9760   20.0750   25.7950 C.ar   90  PHE90      -0.0003
     99  CE2       18.8940   20.1890   27.0050 C.ar   90  PHE90      -0.0003
    100  CZ        20.0770   20.7920   26.5860 C.ar   90  PHE90      -0.0000
    101  N         13.4390   17.5780   27.1950 N.3    92  ILE92      -0.1245
    102  CA        13.0600   17.4820   28.6000 C.3    92  ILE92       0.1561
    103  C         11.6810   16.8270   28.6380 C.2    92  ILE92       0.2260
    104  O         10.6590   17.5080   28.5450 O.2    92  ILE92      -0.2867
    105  CB        13.0070   18.8830   29.2510 C.3    92  ILE92       0.0252
    106  CG1       14.4100   19.4990   29.2580 C.3    92  ILE92       0.0019
    107  CG2       12.4460   18.7800   30.6710 C.3    92  ILE92       0.0019
    108  CD1       14.4380   20.9820   29.5640 C.3    92  ILE92       0.0001
    109  N         13.3150   17.8280   37.2240 N.3   101  LEU101     -0.1245
    110  CA        13.4430   17.9670   35.7750 C.3   101  LEU101      0.1561
    111  C         14.0790   16.6900   35.2700 C.2   101  LEU101      0.2260
    112  O         15.0740   16.2290   35.8330 O.2   101  LEU101     -0.2867
    113  CB        14.3250   19.1680   35.4080 C.3   101  LEU101      0.0270
    114  CG        14.4940   19.3950   33.8960 C.3   101  LEU101      0.0019
    115  CD1       14.5750   20.8810   33.5920 C.3   101  LEU101      0.0001
    116  CD2       15.7300   18.6620   33.3890 C.3   101  LEU101      0.0001
    117  N         15.7400   14.7830   31.9610 N.3   103  ALA103     -0.1245
    118  CA        16.3010   15.0300   30.6450 C.3   103  ALA103      0.1562
    119  C         16.5820   13.7300   29.9060 C.2   103  ALA103      0.2260
    120  O         16.8270   12.6870   30.5150 O.2   103  ALA103     -0.2867
    121  CB        17.5900   15.8440   30.7670 C.3   103  ALA103      0.0290
    122  N         18.9000   12.5270   26.5360 N.3   105  LEU105     -0.1245
    123  CA        19.9060   12.8970   25.5550 C.3   105  LEU105      0.1561
    124  C         20.3890   11.7400   24.6800 C.2   105  LEU105      0.2260
    125  O         20.4740   10.6040   25.1340 O.2   105  LEU105     -0.2867
    126  CB        21.1050   13.5030   26.2920 C.3   105  LEU105      0.0270
    127  CG        22.4250   13.7640   25.5570 C.3   105  LEU105      0.0019
    128  CD1       23.0870   14.9800   26.1660 C.3   105  LEU105      0.0001
    129  CD2       23.3340   12.5450   25.6560 C.3   105  LEU105      0.0001
    130  N         21.3690    8.8780   27.2530 N.3   116  LEU116     -0.1245
    131  CA        21.5740    9.2300   28.6430 C.3   116  LEU116      0.1561
    132  C         20.3190    9.9220   29.1430 C.2   116  LEU116      0.2260
    133  O         19.7250   10.7290   28.4410 O.2   116  LEU116     -0.2867
    134  CB        22.7830   10.1680   28.7840 C.3   116  LEU116      0.0270
    135  CG        23.1470   10.6160   30.2050 C.3   116  LEU116      0.0019
    136  CD1       24.6110   10.9880   30.2640 C.3   116  LEU116      0.0001
    137  CD2       22.2730   11.7890   30.6370 C.3   116  LEU116      0.0001
    138  N         17.1050   15.7120   37.7170 N.3   120  TYR120     -0.1241
    139  CA        17.6910   16.8510   38.3900 C.3   120  TYR120      0.1605
    140  C         16.6900   17.4510   39.3620 C.2   120  TYR120      0.2264
    141  O         15.4790   17.3880   39.1380 O.2   120  TYR120     -0.2867
    142  CB        18.0890   17.8870   37.3410 C.3   120  TYR120      0.0534
    143  CG        18.9870   17.3040   36.2780 C.ar  120  TYR120     -0.0201
    144  CD1       20.3710   17.3020   36.4370 C.ar  120  TYR120     -0.0009
    145  CD2       18.4540   16.6880   35.1440 C.ar  120  TYR120     -0.0009
    146  CE1       21.2060   16.6940   35.5020 C.ar  120  TYR120      0.0417
    147  CE2       19.2820   16.0780   34.1960 C.ar  120  TYR120      0.0417
    148  CZ        20.6560   16.0850   34.3840 C.ar  120  TYR120      0.1957
    149  OH        21.4750   15.4640   33.4610 O.3   120  TYR120     -0.2866
@<TRIPOS>BOND
     1    82    83    1
     2    85    84    2
     3    84    83    1
     4    83    86    1
     5    63    64    1
     6    65    66    2
     7    65    64    1
     8    64    67    1
     9    70    71    1
    10    86    87    1
    11    90    91    1
    12    87    89   am
    13    87    88    2
    14    67    69    1
    15    67    68    1
    16    72    73    2
    17    72    71    1
    18    71    74    1
    19    93    92    2
    20    91    92    1
    21    91    94    1
    22   124   125    2
    23   124   123    1
    24    74    75    1
    25    96    98   ar
    26    96    95   ar
    27    94    95    1
    28   123   126    1
    29   123   122    1
    30   127   129    1
    31   127   128    1
    32   127   126    1
    33    98   100   ar
    34    95    97   ar
    35    11     9   ar
    36    11    10   ar
    37    75    77   ar
    38    75    76   ar
    39   100    99   ar
    40    97    99   ar
    41     9     7   ar
    42    77    79   ar
    43    10     8   ar
    44    76    78   ar
    45   101   102    1
    46    57    56    1
    47    57    58    2
    48   130   131    1
    49    59    56    1
    50    59    60    1
    51    56    55    1
    52    61    60    1
    53    61    62    1
    54    79    80   ar
    55     7     6   ar
    56    78    80   ar
    57     8     6   ar
    58   133   132    2
    59   104   103    2
    60    80    81    1
    61   102   103    1
    62   102   105    1
    63   131   134    1
    64   131   132    1
    65    42    41    1
    66     6     5    1
    67   134   135    1
    68   105   106    1
    69   105   107    1
    70   106   108    1
    71    41    43    1
    72    41    40    1
    73   119   120    2
    74   119   118    1
    75    36    37    1
    76     5     2    1
    77   135   136    1
    78   135   137    1
    79    40    37    1
    80   118   121    1
    81   118   117    1
    82     1     2    1
    83     2     3    1
    84    37    38    1
    85    52    54   ar
    86    52    50   ar
    87    39    38    2
    88    18    17    1
    89    54    53   ar
    90    34    32    1
    91    50    49   ar
    92     3     4    2
    93    17    19    1
    94    17    16    1
    95    53    51   ar
    96    35    33    1
    97    32    33    1
    98    32    29    1
    99   116   114    1
   100   149   148    1
   101    30    29    1
   102    30    31    2
   103    49    51   ar
   104    49    48    1
   105   115   114    1
   106    29    28    1
   107    16    13    1
   108   114   113    1
   109   147   148   ar
   110   147   145   ar
   111   148   146   ar
   112    26    25    1
   113    48    45    1
   114    44    45    1
   115    12    13    1
   116    13    14    1
   117   145   143   ar
   118    27    25    1
   119   111   110    1
   120   111   112    2
   121   113   110    1
   122   146   144   ar
   123    45    46    1
   124    25    24    1
   125   110   109    1
   126    14    15    2
   127    24    21    1
   128    47    46    2
   129   143   144   ar
   130   143   142    1
   131    21    20    1
   132    21    22    1
   133   142   139    1
   134   138   139    1
   135    22    23    2
   136   139   140    1
   137   141   140    2
