@<TRIPOS>MOLECULE
tmp/1i0sA00.pdb
 197 192 0 0 0
SMALL
GASTEIGER

@<TRIPOS>ATOM
      1  N         25.4270    1.0670   75.8340 N.3    13  LEU13      -0.1245
      2  CA        25.8280   -0.3030   76.1760 C.3    13  LEU13       0.1561
      3  C         25.0570   -0.5830   77.4590 C.2    13  LEU13       0.2260
      4  O         25.0520    0.2190   78.3980 O.2    13  LEU13      -0.2867
      5  CB        27.3440   -0.4590   76.3470 C.3    13  LEU13       0.0270
      6  CG        27.7440   -1.9370   76.2120 C.3    13  LEU13       0.0019
      7  CD1       27.4540   -2.4540   74.7970 C.3    13  LEU13       0.0001
      8  CD2       29.2270   -2.1090   76.5680 C.3    13  LEU13       0.0001
      9  N         21.1580  -12.4790   82.4750 N.3    26  GLY26      -0.1210
     10  CA        21.5430  -11.1350   82.0890 C.3    26  GLY26       0.1956
     11  C         22.5410  -11.2470   80.9530 C.2    26  GLY26       0.2612
     12  O         23.3270  -12.1880   80.8970 O.2    26  GLY26      -0.2717
     13  N         22.5070  -10.2910   80.0340 N.am   27  GLN27      -0.1965
     14  CA        23.4570  -10.2810   78.9270 C.3    27  GLN27       0.1733
     15  C         23.7900   -8.8420   78.5920 C.2    27  GLN27       0.2616
     16  O         23.0440   -7.9340   78.9100 O.2    27  GLN27      -0.2715
     17  CB        22.8620  -10.9320   77.6790 C.3    27  GLN27       0.0408
     18  CG        21.5860  -10.2220   77.1510 C.3    27  GLN27       0.0908
     19  CD        21.3160  -10.5720   75.7230 C.2    27  GLN27       0.2608
     20  OE1       21.9050   -9.9800   74.7920 O.2    27  GLN27      -0.2717
     21  NE2       20.4550  -11.5410   75.5120 N.am   27  GLN27      -0.0878
     22  N         24.9340   -8.6270   77.9580 N.am   28  ILE28      -0.1963
     23  CA        25.2520   -7.2880   77.4960 C.3    28  ILE28       0.1727
     24  C         24.4700   -7.1160   76.1740 C.2    28  ILE28       0.2616
     25  O         24.2590   -8.0770   75.4310 O.2    28  ILE28      -0.2715
     26  CB        26.7560   -7.1500   77.1750 C.3    28  ILE28       0.0290
     27  CG1       27.5820   -7.2290   78.4670 C.3    28  ILE28       0.0022
     28  CG2       27.0040   -5.8380   76.3940 C.3    28  ILE28       0.0023
     29  CD1       27.4020   -6.0510   79.4130 C.3    28  ILE28       0.0001
     30  N         23.9810   -5.9090   75.9210 N.am   29  ALA29      -0.1963
     31  CA        23.3220   -5.6410   74.6530 C.3    29  ALA29       0.1728
     32  C         23.5920   -4.2130   74.2880 C.2    29  ALA29       0.2616
     33  O         23.6640   -3.3500   75.1720 O.2    29  ALA29      -0.2715
     34  CB        21.8030   -5.8660   74.7600 C.3    29  ALA29       0.0334
     35  N         23.7990   -3.9610   73.0000 N.am   30  ASN30      -0.1958
     36  CA        23.9230   -2.5850   72.5750 C.3    30  ASN30       0.1819
     37  C         22.5980   -2.1790   71.9270 C.2    30  ASN30       0.2621
     38  O         22.2930   -0.9950   71.8330 O.2    30  ASN30      -0.2715
     39  CB        25.1260   -2.3690   71.6070 C.3    30  ASN30       0.1195
     40  CG        24.9980   -3.0950   70.2540 C.2    30  ASN30       0.2630
     41  OD1       24.1490   -3.9500   70.0370 O.2    30  ASN30      -0.2716
     42  ND2       25.8910   -2.7490   69.3420 N.am   30  ASN30      -0.0877
     43  N         21.7800   -3.1680   71.5520 N.am   31  THR31      -0.1951
     44  CA        20.5170   -2.9010   70.8530 C.3    31  THR31       0.1897
     45  C         19.3380   -2.6930   71.7850 C.2    31  THR31       0.2313
     46  O         18.4940   -3.5810   71.9670 O.2    31  THR31      -0.2863
     47  CB        20.2000   -4.0370   69.8550 C.3    31  THR31       0.1794
     48  OG1       21.3860   -4.3610   69.1170 O.3    31  THR31      -0.2208
     49  CG2       19.1240   -3.6010   68.8850 C.3    31  THR31       0.0378
     50  N         16.7420   -6.0870   71.4470 N.3    45  CYS45      -0.1221
     51  CA        16.8290   -7.1250   70.4030 C.3    45  CYS45       0.1808
     52  C         17.8310   -8.1690   70.8790 C.2    45  CYS45       0.2601
     53  O         19.0250   -7.8940   70.9730 O.2    45  CYS45      -0.2717
     54  CB        17.2820   -6.4930   69.0810 C.3    45  CYS45       0.0970
     55  SG        16.9540   -7.5880   67.6870 S.3    45  CYS45      -0.0800
     56  N         17.3280   -9.3710   71.1580 N.am   46  LEU46      -0.1965
     57  CA        18.1380  -10.4490   71.7230 C.3    46  LEU46       0.1728
     58  C         18.2240  -11.6820   70.8440 C.2    46  LEU46       0.2616
     59  O         17.2160  -12.1520   70.3010 O.2    46  LEU46      -0.2715
     60  CB        17.5550  -10.8560   73.0880 C.3    46  LEU46       0.0311
     61  CG        17.1720   -9.7220   74.0440 C.3    46  LEU46       0.0022
     62  CD1       16.5700  -10.3150   75.3260 C.3    46  LEU46       0.0001
     63  CD2       18.3900   -8.8510   74.3570 C.3    46  LEU46       0.0001
     64  N         19.4330  -12.2270   70.7320 N.am   47  ASN47      -0.1972
     65  CA        19.6660  -13.4040   69.9020 C.3    47  ASN47       0.1688
     66  C         18.8980  -14.6040   70.4920 C.2    47  ASN47       0.2292
     67  O         18.9170  -14.8070   71.7080 O.2    47  ASN47      -0.2864
     68  CB        21.1750  -13.6770   69.8640 C.3    47  ASN47       0.1181
     69  CG        21.5590  -14.7300   68.8500 C.2    47  ASN47       0.2629
     70  OD1       21.0570  -15.8510   68.8850 O.2    47  ASN47      -0.2716
     71  ND2       22.4580  -14.3720   67.9330 N.am   47  ASN47      -0.0877
     72  N         20.4190  -16.9480   73.1030 N.3    50  ASN50      -0.1225
     73  CA        20.7660  -16.4750   74.4430 C.3    50  ASN50       0.1785
     74  C         19.8450  -16.9360   75.5410 C.2    50  ASN50       0.2597
     75  O         18.6400  -17.0040   75.3390 O.2    50  ASN50      -0.2718
     76  CB        20.7950  -14.9450   74.4880 C.3    50  ASN50       0.1169
     77  CG        21.8440  -14.3390   73.5720 C.2    50  ASN50       0.2627
     78  OD1       21.8710  -13.1150   73.3810 O.2    50  ASN50      -0.2716
     79  ND2       22.7070  -15.1750   73.0020 N.am   50  ASN50      -0.0877
     80  N         20.4130  -17.2270   76.7100 N.am   51  ASP51      -0.1960
     81  CA        19.5890  -17.6340   77.8380 C.3    51  ASP51       0.1840
     82  C         18.6680  -16.4670   78.2280 C.2    51  ASP51       0.2622
     83  O         17.5160  -16.6810   78.6220 O.2    51  ASP51      -0.2715
     84  CB        20.4720  -18.0420   79.0340 C.3    51  ASP51       0.1450
     85  CG        21.1080  -19.4150   78.8530 C.2    51  ASP51       0.3671
     86  OD1       22.1670  -19.6500   79.4760 O.co2  51  ASP51      -0.2456
     87  OD2       20.5650  -20.2660   78.0940 O.co2  51  ASP51      -0.2456
     88  N         19.1530  -15.2290   78.1080 N.am   52  THR52      -0.1951
     89  CA        18.3300  -14.0910   78.4910 C.3    52  THR52       0.1897
     90  C         17.1310  -13.9700   77.5410 C.2    52  THR52       0.2313
     91  O         16.0290  -13.6240   77.9710 O.2    52  THR52      -0.2863
     92  CB        19.1550  -12.7710   78.5150 C.3    52  THR52       0.1794
     93  OG1       20.2980  -12.9300   79.3760 O.3    52  THR52      -0.2208
     94  CG2       18.3070  -11.6200   79.0650 C.3    52  THR52       0.0378
     95  N         31.8750   -6.1420   81.9420 N.3    76  ILE76      -0.1245
     96  CA        31.2270   -6.3080   80.6480 C.3    76  ILE76       0.1561
     97  C         31.3640   -7.7790   80.2200 C.2    76  ILE76       0.2260
     98  O         30.4000   -8.3810   79.7500 O.2    76  ILE76      -0.2867
     99  CB        31.8680   -5.3640   79.6060 C.3    76  ILE76       0.0252
    100  CG1       31.5070   -3.9130   79.9580 C.3    76  ILE76       0.0019
    101  CG2       31.4020   -5.7370   78.1840 C.3    76  ILE76       0.0019
    102  CD1       32.2860   -2.8350   79.1370 C.3    76  ILE76       0.0001
    103  N         29.0110  -10.4780   81.8280 N.3    79  PHE79      -0.1227
    104  CA        27.6890  -10.5920   81.2110 C.3    79  PHE79       0.1736
    105  C         27.6500  -10.8250   79.7130 C.2    79  PHE79       0.2596
    106  O         26.6660  -11.3550   79.2030 O.2    79  PHE79      -0.2718
    107  CB        26.8600   -9.3420   81.5040 C.3    79  PHE79       0.0547
    108  CG        26.4040   -9.2440   82.9200 C.ar   79  PHE79      -0.0202
    109  CD1       27.1330   -8.5260   83.8610 C.ar   79  PHE79      -0.0042
    110  CD2       25.2320   -9.8770   83.3150 C.ar   79  PHE79      -0.0042
    111  CE1       26.7020   -8.4370   85.1820 C.ar   79  PHE79      -0.0003
    112  CE2       24.7900   -9.7960   84.6390 C.ar   79  PHE79      -0.0003
    113  CZ        25.5240   -9.0750   85.5750 C.ar   79  PHE79      -0.0000
    114  N         28.7210  -10.4810   79.0060 N.am   80  GLY80      -0.1942
    115  CA        28.6830  -10.6040   77.5660 C.3    80  GLY80       0.2014
    116  C         29.4660  -11.6950   76.8700 C.2    80  GLY80       0.2639
    117  O         29.4140  -11.7940   75.6500 O.2    80  GLY80      -0.2714
    118  N         30.1860  -12.5120   77.6320 N.am   81  PHE81      -0.1959
    119  CA        30.9830  -13.5690   77.0230 C.3    81  PHE81       0.1771
    120  C         30.7950  -14.9450   77.6280 C.2    81  PHE81       0.2619
    121  O         31.7030  -15.7760   77.5850 O.2    81  PHE81      -0.2715
    122  CB        32.4760  -13.1950   77.0150 C.3    81  PHE81       0.0574
    123  CG        32.8130  -12.0680   76.0720 C.ar   81  PHE81      -0.0200
    124  CD1       33.1210  -10.8080   76.5610 C.ar   81  PHE81      -0.0042
    125  CD2       32.7630  -12.2620   74.6990 C.ar   81  PHE81      -0.0042
    126  CE1       33.3740   -9.7330   75.6900 C.ar   81  PHE81      -0.0003
    127  CE2       33.0130  -11.2010   73.8150 C.ar   81  PHE81      -0.0003
    128  CZ        33.3160   -9.9350   74.3170 C.ar   81  PHE81      -0.0000
    129  N         29.6200  -15.1790   78.2190 N.am   82  ARG82      -0.1963
    130  CA        29.3020  -16.4890   78.7780 C.3    82  ARG82       0.1729
    131  C         27.7850  -16.5840   78.9160 C.2    82  ARG82       0.2616
    132  O         27.0990  -15.5670   78.8200 O.2    82  ARG82      -0.2715
    133  CB        29.9700  -16.6800   80.1430 C.3    82  ARG82       0.0348
    134  CG        29.4890  -15.7240   81.2210 C.3    82  ARG82       0.0492
    135  CD        30.5860  -15.4840   82.2590 C.3    82  ARG82       0.2205
    136  NE        31.6160  -14.5790   81.7380 N.pl3  82  ARG82      -0.0865
    137  CZ        32.8890  -14.5930   82.1170 C.cat  82  ARG82       0.5346
    138  NH1       33.2960  -15.4770   83.0180 N.pl3  82  ARG82       0.1354
    139  NH2       33.7550  -13.7340   81.5710 N.pl3  82  ARG82       0.1354
    140  N         27.2670  -17.7890   79.1490 N.am   83  LYS83      -0.1963
    141  CA        25.8170  -17.9790   79.2790 C.3    83  LYS83       0.1728
    142  C         25.3560  -17.9670   80.7220 C.2    83  LYS83       0.2616
    143  O         26.0180  -18.5390   81.6050 O.2    83  LYS83      -0.2715
    144  CB        25.4000  -19.3020   78.6490 C.3    83  LYS83       0.0311
    145  CG        25.6230  -19.3420   77.1390 C.3    83  LYS83       0.0038
    146  CD        25.1310  -20.6380   76.5530 C.3    83  LYS83       0.0206
    147  CE        25.1900  -20.5910   75.0380 C.3    83  LYS83       0.1093
    148  NZ        24.1230  -19.6900   74.4960 N.3    83  LYS83      -0.1314
    149  N         24.2120  -17.3290   80.9580 N.am   84  SER84      -0.1950
    150  CA        23.6420  -17.2170   82.3020 C.3    84  SER84       0.1924
    151  C         23.3790  -18.5500   83.0090 C.2    84  SER84       0.2314
    152  O         23.4490  -18.6150   84.2260 O.2    84  SER84      -0.2863
    153  CB        22.3130  -16.4600   82.2570 C.3    84  SER84       0.2116
    154  OG        22.4840  -15.1220   81.8390 O.3    84  SER84      -0.2180
    155  N         26.2670  -15.2900   86.8380 N.3    89  LYS89      -0.1245
    156  CA        26.5920  -13.8990   86.5330 C.3    89  LYS89       0.1561
    157  C         26.2430  -12.9200   87.6300 C.2    89  LYS89       0.2260
    158  O         26.8980  -11.8920   87.7720 O.2    89  LYS89      -0.2867
    159  CB        25.8900  -13.4580   85.2440 C.3    89  LYS89       0.0271
    160  CG        26.3900  -14.1540   83.9790 C.3    89  LYS89       0.0035
    161  CD        25.6000  -13.7140   82.7660 C.3    89  LYS89       0.0206
    162  CE        26.2010  -14.2930   81.4790 C.3    89  LYS89       0.1093
    163  NZ        25.4490  -13.9200   80.2360 N.3    89  LYS89      -0.1314
    164  N         17.2100  -13.2040   65.7780 N.3   126  HIS126     -0.1241
    165  CA        16.8730  -12.4900   67.0040 C.3   126  HIS126      0.1621
    166  C         15.3880  -12.2390   67.1440 C.2   126  HIS126      0.2264
    167  O         14.6250  -12.3050   66.1670 O.2   126  HIS126     -0.2867
    168  CB        17.5090  -11.0780   67.0290 C.3   126  HIS126      0.0745
    169  CG        19.0060  -11.0370   67.1460 C.ar  126  HIS126      0.0817
    170  ND1       19.8590  -11.6120   66.2250 N.ar  126  HIS126     -0.2268
    171  CD2       19.7970  -10.4080   68.0510 C.ar  126  HIS126      0.1154
    172  CE1       21.1090  -11.3400   66.5610 C.ar  126  HIS126      0.1986
    173  NE2       21.0980  -10.6120   67.6660 N.ar  126  HIS126     -0.2212
    174  N         28.6890    2.2840   72.7310 N.3   147  TYR147     -0.1241
    175  CA        29.2650    1.1190   72.0670 C.3   147  TYR147      0.1605
    176  C         30.5710    1.5400   71.3870 C.2   147  TYR147      0.2264
    177  O         31.5250    0.7640   71.3110 O.2   147  TYR147     -0.2867
    178  CB        28.2470    0.5570   71.0460 C.3   147  TYR147      0.0534
    179  CG        28.6700   -0.7040   70.3180 C.ar  147  TYR147     -0.0201
    180  CD1       29.0650   -1.8570   71.0210 C.ar  147  TYR147     -0.0009
    181  CD2       28.6880   -0.7470   68.9190 C.ar  147  TYR147     -0.0009
    182  CE1       29.4670   -3.0050   70.3430 C.ar  147  TYR147      0.0417
    183  CE2       29.0910   -1.8900   68.2380 C.ar  147  TYR147      0.0417
    184  CZ        29.4820   -3.0190   68.9530 C.ar  147  TYR147      0.1957
    185  OH        29.9040   -4.1430   68.2690 O.3   147  TYR147     -0.2866
    186  N         33.2100    1.5360   73.9580 N.3   150  TYR150     -0.1241
    187  CA        33.6180    0.1630   74.2080 C.3   150  TYR150      0.1605
    188  C         34.6090   -0.2900   73.1440 C.2   150  TYR150      0.2264
    189  O         35.5540   -1.0050   73.4510 O.2   150  TYR150     -0.2867
    190  CB        32.3920   -0.7580   74.2160 C.3   150  TYR150      0.0534
    191  CG        32.6980   -2.2190   73.9740 C.ar  150  TYR150     -0.0201
    192  CD1       33.1600   -3.0450   75.0060 C.ar  150  TYR150     -0.0009
    193  CD2       32.5280   -2.7780   72.7070 C.ar  150  TYR150     -0.0009
    194  CE1       33.4350   -4.3880   74.7660 C.ar  150  TYR150      0.0417
    195  CE2       32.8040   -4.1130   72.4570 C.ar  150  TYR150      0.0417
    196  CZ        33.2580   -4.9170   73.4980 C.ar  150  TYR150      0.1957
    197  OH        33.5500   -6.2360   73.2280 O.3   150  TYR150     -0.2866
@<TRIPOS>BOND
     1   164   165    1
     2   167   166    2
     3   170   172   ar
     4   170   169   ar
     5   172   173   ar
     6   165   168    1
     7   165   166    1
     8   168   169    1
     9   169   171   ar
    10   173   171   ar
    11    55    54    1
    12    71    69   am
    13   183   181   ar
    14   183   184   ar
    15   185   184    1
    16    69    70    2
    17    69    68    1
    18    49    47    1
    19   181   179   ar
    20   184   182   ar
    21    54    51    1
    22    48    47    1
    23    42    40   am
    24    47    44    1
    25    68    65    1
    26    65    66    1
    27    65    64    1
    28    41    40    2
    29    40    39    1
    30    59    58    2
    31   179   180   ar
    32   179   178    1
    33   182   180   ar
    34    51    52    1
    35    51    50    1
    36    66    67    2
    37    64    58   am
    38    58    57    1
    39    44    43    1
    40    44    45    1
    41    52    53    2
    42    52    56   am
    43   178   175    1
    44    56    57    1
    45   177   176    2
    46   176   175    1
    47    43    37   am
    48    39    36    1
    49    57    60    1
    50    45    46    2
    51    38    37    2
    52    37    36    1
    53   175   174    1
    54   195   193   ar
    55   195   196   ar
    56    36    35    1
    57   193   191   ar
    58    35    32   am
    59    79    77   am
    60    60    61    1
    61    72    73    1
    62   188   189    2
    63   188   187    1
    64   197   196    1
    65    78    77    2
    66   196   194   ar
    67    77    76    1
    68   127   128   ar
    69   127   125   ar
    70   186   187    1
    71   191   190    1
    72   191   192   ar
    73    61    63    1
    74    61    62    1
    75   187   190    1
    76    32    31    1
    77    32    33    2
    78   128   126   ar
    79    73    76    1
    80    73    74    1
    81   148   147    1
    82    31    34    1
    83    31    30    1
    84   125   123   ar
    85   194   192   ar
    86    20    19    2
    87     7     6    1
    88   147   146    1
    89    75    74    2
    90    25    24    2
    91    21    19   am
    92    74    80   am
    93   117   116    2
    94   126   124   ar
    95    19    18    1
    96     1     2    1
    97    30    24   am
    98   123   124   ar
    99   123   122    1
   100    24    23    1
   101     2     5    1
   102     2     3    1
   103     6     5    1
   104     6     8    1
   105    28    26    1
   106   146   145    1
   107    80    81    1
   108   116   115    1
   109   116   118   am
   110   122   119    1
   111   119   120    1
   112   119   118    1
   113   145   144    1
   114    18    17    1
   115    26    23    1
   116    26    27    1
   117     3     4    2
   118    23    22    1
   119    90    91    2
   120    90    89    1
   121   115   114    1
   122   121   120    2
   123   120   129   am
   124    17    14    1
   125    81    82    1
   126    81    84    1
   127    22    15   am
   128    87    85   ar
   129    88    82   am
   130    88    89    1
   131   101    99    1
   132   129   130    1
   133    82    83    2
   134    27    29    1
   135    89    92    1
   136    92    94    1
   137    92    93    1
   138    15    16    2
   139    15    14    1
   140   144   141    1
   141   130   131    1
   142   130   133    1
   143   132   131    2
   144    85    84    1
   145    85    86   ar
   146   131   140   am
   147    14    13    1
   148   114   105   am
   149   102   100    1
   150   140   141    1
   151   106   105    2
   152   141   142    1
   153    99   100    1
   154    99    96    1
   155   105   104    1
   156    98    97    2
   157    13    11   am
   158   133   134    1
   159    97    96    1
   160   163   162    1
   161    96    95    1
   162   142   149   am
   163   142   143    2
   164    12    11    2
   165    11    10    1
   166   149   150    1
   167   104   107    1
   168   104   103    1
   169   134   135    1
   170   162   161    1
   171   107   108    1
   172   139   137    1
   173   136   137    2
   174   136   135    1
   175   154   153    1
   176    10     9    1
   177   137   138    1
   178   153   150    1
   179   150   151    1
   180   161   160    1
   181   108   110   ar
   182   108   109   ar
   183   151   152    2
   184   110   112   ar
   185   109   111   ar
   186   160   159    1
   187   112   113   ar
   188   111   113   ar
   189   159   156    1
   190   156   155    1
   191   156   157    1
   192   157   158    2
