@<TRIPOS>MOLECULE
tmp/1i0sA01.pdb
 123 120 0 0 0
SMALL
GASTEIGER

@<TRIPOS>ATOM
      1  N         29.2430    0.1230   61.4100 N.3     7  TYR7       -0.1241
      2  CA        29.9820    0.5190   62.6110 C.3     7  TYR7        0.1605
      3  C         29.6670    1.9790   62.9570 C.2     7  TYR7        0.2264
      4  O         29.8700    2.4130   64.0860 O.2     7  TYR7       -0.2867
      5  CB        31.5010    0.4370   62.3880 C.3     7  TYR7        0.0534
      6  CG        32.0930   -0.9190   62.0160 C.ar    7  TYR7       -0.0201
      7  CD1       33.4390   -1.0200   61.6740 C.ar    7  TYR7       -0.0009
      8  CD2       31.3310   -2.0790   62.0290 C.ar    7  TYR7       -0.0009
      9  CE1       34.0160   -2.2540   61.3450 C.ar    7  TYR7        0.0417
     10  CE2       31.8950   -3.3220   61.7080 C.ar    7  TYR7        0.0417
     11  CZ        33.2380   -3.3970   61.3640 C.ar    7  TYR7        0.1957
     12  OH        33.8040   -4.6150   61.0150 O.3     7  TYR7       -0.2866
     13  N         23.7990   -3.9610   73.0000 N.3    30  ASN30      -0.1225
     14  CA        23.9230   -2.5850   72.5750 C.3    30  ASN30       0.1785
     15  C         22.5980   -2.1790   71.9270 C.2    30  ASN30       0.2597
     16  O         22.2930   -0.9950   71.8330 O.2    30  ASN30      -0.2718
     17  CB        25.1260   -2.3690   71.6070 C.3    30  ASN30       0.1169
     18  CG        24.9980   -3.0950   70.2540 C.2    30  ASN30       0.2627
     19  OD1       24.1490   -3.9500   70.0370 O.2    30  ASN30      -0.2716
     20  ND2       25.8910   -2.7490   69.3420 N.am   30  ASN30      -0.0877
     21  N         21.7800   -3.1680   71.5520 N.am   31  THR31      -0.1953
     22  CA        20.5170   -2.9010   70.8530 C.3    31  THR31       0.1897
     23  C         19.3380   -2.6930   71.7850 C.2    31  THR31       0.2313
     24  O         18.4940   -3.5810   71.9670 O.2    31  THR31      -0.2863
     25  CB        20.2000   -4.0370   69.8550 C.3    31  THR31       0.1794
     26  OG1       21.3860   -4.3610   69.1170 O.3    31  THR31      -0.2208
     27  CG2       19.1240   -3.6010   68.8850 C.3    31  THR31       0.0378
     28  N         16.7420   -6.0870   71.4470 N.3    45  CYS45      -0.1235
     29  CA        16.8290   -7.1250   70.4030 C.3    45  CYS45       0.1677
     30  C         17.8310   -8.1690   70.8790 C.2    45  CYS45       0.2270
     31  O         19.0250   -7.8940   70.9730 O.2    45  CYS45      -0.2867
     32  CB        17.2820   -6.4930   69.0810 C.3    45  CYS45       0.0956
     33  SG        16.9540   -7.5880   67.6870 S.3    45  CYS45      -0.0801
     34  N         19.4330  -12.2270   70.7320 N.3    47  ASN47      -0.1240
     35  CA        19.6660  -13.4040   69.9020 C.3    47  ASN47       0.1653
     36  C         18.8980  -14.6040   70.4920 C.2    47  ASN47       0.2266
     37  O         18.9170  -14.8070   71.7080 O.2    47  ASN47      -0.2867
     38  CB        21.1750  -13.6770   69.8640 C.3    47  ASN47       0.1155
     39  CG        21.5590  -14.7300   68.8500 C.2    47  ASN47       0.2627
     40  OD1       21.0570  -15.8510   68.8850 O.2    47  ASN47      -0.2716
     41  ND2       22.4580  -14.3720   67.9330 N.am   47  ASN47      -0.0877
     42  N         28.7210  -10.4810   79.0060 N.3    80  GLY80      -0.1210
     43  CA        28.6830  -10.6040   77.5660 C.3    80  GLY80       0.1956
     44  C         29.4660  -11.6950   76.8700 C.2    80  GLY80       0.2611
     45  O         29.4140  -11.7940   75.6500 O.2    80  GLY80      -0.2717
     46  N         30.1860  -12.5120   77.6320 N.am   81  PHE81      -0.1976
     47  CA        30.9830  -13.5690   77.0230 C.3    81  PHE81       0.1639
     48  C         30.7950  -14.9450   77.6280 C.2    81  PHE81       0.2290
     49  O         31.7030  -15.7760   77.5850 O.2    81  PHE81      -0.2864
     50  CB        32.4760  -13.1950   77.0150 C.3    81  PHE81       0.0560
     51  CG        32.8130  -12.0680   76.0720 C.ar   81  PHE81      -0.0200
     52  CD1       33.1210  -10.8080   76.5610 C.ar   81  PHE81      -0.0042
     53  CD2       32.7630  -12.2620   74.6990 C.ar   81  PHE81      -0.0042
     54  CE1       33.3740   -9.7330   75.6900 C.ar   81  PHE81      -0.0003
     55  CE2       33.0130  -11.2010   73.8150 C.ar   81  PHE81      -0.0003
     56  CZ        33.3160   -9.9350   74.3170 C.ar   81  PHE81      -0.0000
     57  N         17.2100  -13.2040   65.7780 N.3   126  HIS126     -0.1241
     58  CA        16.8730  -12.4900   67.0040 C.3   126  HIS126      0.1621
     59  C         15.3880  -12.2390   67.1440 C.2   126  HIS126      0.2264
     60  O         14.6250  -12.3050   66.1670 O.2   126  HIS126     -0.2867
     61  CB        17.5090  -11.0780   67.0290 C.3   126  HIS126      0.0745
     62  CG        19.0060  -11.0370   67.1460 C.ar  126  HIS126      0.0817
     63  ND1       19.8590  -11.6120   66.2250 N.ar  126  HIS126     -0.2268
     64  CD2       19.7970  -10.4080   68.0510 C.ar  126  HIS126      0.1154
     65  CE1       21.1090  -11.3400   66.5610 C.ar  126  HIS126      0.1986
     66  NE2       21.0980  -10.6120   67.6660 N.ar  126  HIS126     -0.2212
     67  N         28.6890    2.2840   72.7310 N.3   147  TYR147     -0.1227
     68  CA        29.2650    1.1190   72.0670 C.3   147  TYR147      0.1736
     69  C         30.5710    1.5400   71.3870 C.2   147  TYR147      0.2595
     70  O         31.5250    0.7640   71.3110 O.2   147  TYR147     -0.2718
     71  CB        28.2470    0.5570   71.0460 C.3   147  TYR147      0.0548
     72  CG        28.6700   -0.7040   70.3180 C.ar  147  TYR147     -0.0200
     73  CD1       29.0650   -1.8570   71.0210 C.ar  147  TYR147     -0.0009
     74  CD2       28.6880   -0.7470   68.9190 C.ar  147  TYR147     -0.0009
     75  CE1       29.4670   -3.0050   70.3430 C.ar  147  TYR147      0.0417
     76  CE2       29.0910   -1.8900   68.2380 C.ar  147  TYR147      0.0417
     77  CZ        29.4820   -3.0190   68.9530 C.ar  147  TYR147      0.1957
     78  OH        29.9040   -4.1430   68.2690 O.3   147  TYR147     -0.2866
     79  N         30.6150    2.7770   70.8970 N.am  148  ALA148     -0.1980
     80  CA        31.8270    3.2940   70.2590 C.3   148  ALA148      0.1597
     81  C         32.9400    3.3880   71.3100 C.2   148  ALA148      0.2287
     82  O         34.1060    3.0660   71.0310 O.2   148  ALA148     -0.2864
     83  CB        31.5500    4.6710   69.6510 C.3   148  ALA148      0.0319
     84  N         33.2100    1.5360   73.9580 N.3   150  TYR150     -0.1227
     85  CA        33.6180    0.1630   74.2080 C.3   150  TYR150      0.1736
     86  C         34.6090   -0.2900   73.1440 C.2   150  TYR150      0.2595
     87  O         35.5540   -1.0050   73.4510 O.2   150  TYR150     -0.2718
     88  CB        32.3920   -0.7580   74.2160 C.3   150  TYR150      0.0548
     89  CG        32.6980   -2.2190   73.9740 C.ar  150  TYR150     -0.0200
     90  CD1       33.1600   -3.0450   75.0060 C.ar  150  TYR150     -0.0009
     91  CD2       32.5280   -2.7780   72.7070 C.ar  150  TYR150     -0.0009
     92  CE1       33.4350   -4.3880   74.7660 C.ar  150  TYR150      0.0417
     93  CE2       32.8040   -4.1130   72.4570 C.ar  150  TYR150      0.0417
     94  CZ        33.2580   -4.9170   73.4980 C.ar  150  TYR150      0.1957
     95  OH        33.5500   -6.2360   73.2280 O.3   150  TYR150     -0.2866
     96  N         34.4030    0.1140   71.8920 N.am  151  HIS151     -0.1975
     97  CA        35.3400   -0.3110   70.8680 C.3   151  HIS151      0.1656
     98  C         36.6920    0.3390   71.0190 C.2   151  HIS151      0.2291
     99  O         37.6910   -0.2180   70.5780 O.2   151  HIS151     -0.2864
    100  CB        34.7630   -0.1180   69.4680 C.3   151  HIS151      0.0771
    101  CG        34.0720   -1.3440   68.9640 C.ar  151  HIS151      0.0820
    102  ND1       34.7620   -2.4640   68.5480 N.ar  151  HIS151     -0.2267
    103  CD2       32.7590   -1.6830   68.9440 C.ar  151  HIS151      0.1154
    104  CE1       33.9070   -3.4380   68.2990 C.ar  151  HIS151      0.1986
    105  NE2       32.6840   -2.9900   68.5290 N.ar  151  HIS151     -0.2212
    106  N         38.3250   -1.7170   73.6410 N.3   154  LYS154     -0.1231
    107  CA        38.7650   -2.9790   73.0710 C.3   154  LYS154      0.1693
    108  C         40.1570   -2.8030   72.4710 C.2   154  LYS154      0.2591
    109  O         40.9450   -3.7440   72.4340 O.2   154  LYS154     -0.2718
    110  CB        37.7670   -3.4350   71.9990 C.3   154  LYS154      0.0285
    111  CG        37.7650   -4.9230   71.6870 C.3   154  LYS154      0.0035
    112  CD        36.5220   -5.2930   70.8730 C.3   154  LYS154      0.0206
    113  CE        36.5330   -6.7510   70.4730 C.3   154  LYS154      0.1093
    114  NZ        37.7160   -7.0930   69.6340 N.3   154  LYS154     -0.1314
    115  N         40.4650   -1.5860   72.0120 N.am  155  LYS155     -0.1980
    116  CA        41.7490   -1.3110   71.4050 C.3   155  LYS155      0.1596
    117  C         42.7920   -0.9770   72.4710 C.2   155  LYS155      0.2287
    118  O         43.8720   -0.4540   72.1600 O.2   155  LYS155     -0.2864
    119  CB        41.6350   -0.1470   70.3950 C.3   155  LYS155      0.0298
    120  CG        40.7040   -0.4390   69.2280 C.3   155  LYS155      0.0038
    121  CD        40.8450    0.6110   68.1470 C.3   155  LYS155      0.0206
    122  CE        39.8240    0.3960   67.0400 C.3   155  LYS155      0.1093
    123  NZ        39.2510   -0.9770   67.0720 N.3   155  LYS155     -0.1314
@<TRIPOS>BOND
     1    12    11    1
     2     9    11   ar
     3     9     7   ar
     4    11    10   ar
     5     1     2    1
     6     7     6   ar
     7    10     8   ar
     8     6     8   ar
     9     6     5    1
    10     5     2    1
    11     2     3    1
    12     3     4    2
    13    57    58    1
    14    60    59    2
    15    63    65   ar
    16    63    62   ar
    17    65    66   ar
    18    58    61    1
    19    58    59    1
    20    61    62    1
    21   122   123    1
    22   122   121    1
    23    62    64   ar
    24    66    64   ar
    25    33    32    1
    26    41    39   am
    27   121   120    1
    28    76    74   ar
    29    76    77   ar
    30    78    77    1
    31   104   105   ar
    32   104   102   ar
    33   105   103   ar
    34   102   101   ar
    35    39    40    2
    36    39    38    1
    37    27    25    1
    38    74    72   ar
    39   103   101   ar
    40    77    75   ar
    41   101   100    1
    42    32    29    1
    43    26    25    1
    44   120   119    1
    45    20    18   am
    46   100    97    1
    47   114   113    1
    48    83    80    1
    49    25    22    1
    50    38    35    1
    51    35    36    1
    52    35    34    1
    53    19    18    2
    54    18    17    1
    55    80    79    1
    56    80    81    1
    57    72    73   ar
    58    72    71    1
    59    75    73   ar
    60   119   116    1
    61    29    30    1
    62    29    28    1
    63   113   112    1
    64    36    37    2
    65    99    98    2
    66    22    21    1
    67    22    23    1
    68    97    98    1
    69    97    96    1
    70   112   111    1
    71    30    31    2
    72    79    69   am
    73    82    81    2
    74    71    68    1
    75    70    69    2
    76    69    68    1
    77   116   115    1
    78   116   117    1
    79    21    15   am
    80    17    14    1
    81   111   110    1
    82    23    24    2
    83    16    15    2
    84    96    86   am
    85    15    14    1
    86   110   107    1
    87   115   108   am
    88    68    67    1
    89   118   117    2
    90   109   108    2
    91    93    91   ar
    92    93    94   ar
    93   108   107    1
    94    14    13    1
    95    91    89   ar
    96   107   106    1
    97    86    87    2
    98    86    85    1
    99    95    94    1
   100    94    92   ar
   101    55    56   ar
   102    55    53   ar
   103    84    85    1
   104    89    88    1
   105    89    90   ar
   106    85    88    1
   107    56    54   ar
   108    53    51   ar
   109    92    90   ar
   110    45    44    2
   111    54    52   ar
   112    51    52   ar
   113    51    50    1
   114    44    43    1
   115    44    46   am
   116    50    47    1
   117    47    48    1
   118    47    46    1
   119    43    42    1
   120    49    48    2
