@<TRIPOS>MOLECULE
tmp/1i12D00.pdb
 195 190 0 0 0
SMALL
GASTEIGER

@<TRIPOS>ATOM
      1  N         63.5810   10.4590  -14.5840 N.3    27  VAL27      -0.1231
      2  CA        64.1110   11.7870  -14.3160 C.3    27  VAL27       0.1692
      3  C         64.8780   11.7200  -12.9820 C.2    27  VAL27       0.2591
      4  O         65.7950   12.5030  -12.7200 O.2    27  VAL27      -0.2718
      5  CB        62.9790   12.8560  -14.2450 C.3    27  VAL27       0.0266
      6  CG1       62.0710   12.7100  -15.4520 C.3    27  VAL27       0.0020
      7  CG2       62.2020   12.7410  -12.9550 C.3    27  VAL27       0.0020
      8  N         64.4960   10.7590  -12.1520 N.am   28  LEU28      -0.1980
      9  CA        65.1240   10.5550  -10.8460 C.3    28  LEU28       0.1596
     10  C         66.3470    9.6100  -10.9040 C.2    28  LEU28       0.2287
     11  O         67.4440    9.9810  -10.4530 O.2    28  LEU28      -0.2864
     12  CB        64.0600   10.0030   -9.8870 C.3    28  LEU28       0.0297
     13  CG        64.4060    9.8100   -8.4200 C.3    28  LEU28       0.0022
     14  CD1       64.7420   11.1580   -7.8030 C.3    28  LEU28       0.0001
     15  CD2       63.1970    9.1610   -7.7330 C.3    28  LEU28       0.0001
     16  N         58.0620   10.3890    2.7450 N.3    95  ILE95      -0.1231
     17  CA        57.8000   10.7420    1.3400 C.3    95  ILE95       0.1692
     18  C         59.0050   10.2980    0.5400 C.2    95  ILE95       0.2592
     19  O         60.1400   10.5020    0.9670 O.2    95  ILE95      -0.2718
     20  CB        57.5210   12.2390    1.2050 C.3    95  ILE95       0.0266
     21  CG1       56.1010   12.5030    1.6820 C.3    95  ILE95       0.0019
     22  CG2       57.6750   12.6710   -0.2960 C.3    95  ILE95       0.0020
     23  CD1       55.7870   13.9790    1.7950 C.3    95  ILE95       0.0001
     24  N         58.7390    9.6460   -0.5820 N.am   96  GLU96      -0.1966
     25  CA        59.7580    9.0620   -1.3950 C.3    96  GLU96       0.1733
     26  C         59.4400    9.1540   -2.8860 C.2    96  GLU96       0.2616
     27  O         58.2860    9.2810   -3.2900 O.2    96  GLU96      -0.2715
     28  CB        59.8360    7.5310   -1.0650 C.3    96  GLU96       0.0429
     29  CG        60.3200    7.1260    0.3350 C.3    96  GLU96       0.1163
     30  CD        61.8280    7.1990    0.4490 C.2    96  GLU96       0.3649
     31  OE1       62.4820    7.0740   -0.6020 O.co2  96  GLU96      -0.2457
     32  OE2       62.3720    7.3650    1.5930 O.co2  96  GLU96      -0.2457
     33  N         60.4920    9.0880   -3.6860 N.am   97  ASP97      -0.1957
     34  CA        60.3840    8.9260   -5.1260 C.3    97  ASP97       0.1840
     35  C         59.5570    9.9570   -5.8630 C.2    97  ASP97       0.2622
     36  O         58.6360    9.6310   -6.6440 O.2    97  ASP97      -0.2715
     37  CB        59.8970    7.4860   -5.4030 C.3    97  ASP97       0.1450
     38  CG        60.8580    6.4240   -4.8470 C.2    97  ASP97       0.3671
     39  OD1       62.0130    6.7490   -4.5340 O.co2  97  ASP97      -0.2456
     40  OD2       60.4580    5.2490   -4.7440 O.co2  97  ASP97      -0.2456
     41  N         59.9040   11.2040   -5.5620 N.am   98  ILE98      -0.1963
     42  CA        59.2700   12.4130   -6.1230 C.3    98  ILE98       0.1727
     43  C         59.9120   12.6950   -7.4710 C.2    98  ILE98       0.2616
     44  O         61.1110   12.8830   -7.5640 O.2    98  ILE98      -0.2715
     45  CB        59.4930   13.6180   -5.2000 C.3    98  ILE98       0.0290
     46  CG1       58.8920   13.3470   -3.8240 C.3    98  ILE98       0.0022
     47  CG2       58.8590   14.8770   -5.7900 C.3    98  ILE98       0.0023
     48  CD1       57.3760   13.0730   -3.8310 C.3    98  ILE98       0.0001
     49  N         59.1100   12.7030   -8.5240 N.am   99  ALA99      -0.1963
     50  CA        59.6330   12.9580   -9.8690 C.3    99  ALA99       0.1728
     51  C         58.5830   13.7290  -10.6720 C.2    99  ALA99       0.2616
     52  O         57.4330   13.2840  -10.7860 O.2    99  ALA99      -0.2715
     53  CB        59.9480   11.6440  -10.5500 C.3    99  ALA99       0.0334
     54  N         59.0060   14.8710  -11.2050 N.am  100  VAL100     -0.1977
     55  CA        58.1200   15.6840  -12.0620 C.3   100  VAL100      0.1596
     56  C         58.7520   15.6430  -13.4430 C.2   100  VAL100      0.2287
     57  O         59.9590   15.8870  -13.5570 O.2   100  VAL100     -0.2864
     58  CB        58.0530   17.1200  -11.5910 C.3   100  VAL100      0.0276
     59  CG1       57.2950   17.9920  -12.6140 C.3   100  VAL100      0.0022
     60  CG2       57.3200   17.2010  -10.2690 C.3   100  VAL100      0.0022
     61  N         58.2870   20.8000  -15.0930 N.3   105  GLN105     -0.1231
     62  CA        58.9760   21.4010  -13.9680 C.3   105  GLN105      0.1698
     63  C         58.8910   22.9430  -13.9530 C.2   105  GLN105      0.2593
     64  O         58.6470   23.5680  -15.0000 O.2   105  GLN105     -0.2718
     65  CB        60.4560   20.9340  -13.9460 C.3   105  GLN105      0.0381
     66  CG        60.6170   19.4490  -13.6020 C.3   105  GLN105      0.0905
     67  CD        62.0500   18.9490  -13.7860 C.2   105  GLN105      0.2608
     68  OE1       62.9790   19.7510  -13.9200 O.2   105  GLN105     -0.2717
     69  NE2       62.2300   17.6150  -13.8030 N.am  105  GLN105     -0.0878
     70  N         59.0310   23.5540  -12.7710 N.am  106  GLY106     -0.1942
     71  CA        58.9970   25.0150  -12.6690 C.3   106  GLY106      0.2014
     72  C         57.6500   25.7140  -12.7750 C.2   106  GLY106      0.2639
     73  O         57.5800   26.9310  -13.0260 O.2   106  GLY106     -0.2714
     74  N         56.5730   24.9780  -12.5880 N.am  107  GLN107     -0.1963
     75  CA        55.2460   25.5770  -12.6570 C.3   107  GLN107      0.1733
     76  C         54.3780   25.2800  -11.4440 C.2   107  GLN107      0.2617
     77  O         53.1690   25.4360  -11.4920 O.2   107  GLN107     -0.2715
     78  CB        54.5320   25.1200  -13.9210 C.3   107  GLN107      0.0408
     79  CG        54.3720   23.6360  -14.0410 C.3   107  GLN107      0.0908
     80  CD        53.5690   23.2550  -15.2590 C.2   107  GLN107      0.2608
     81  OE1       54.0470   23.3500  -16.3970 O.2   107  GLN107     -0.2717
     82  NE2       52.3290   22.8230  -15.0290 N.am  107  GLN107     -0.0878
     83  N         55.0000   24.8220  -10.3600 N.am  108  GLY108     -0.1940
     84  CA        54.2650   24.5640   -9.1260 C.3   108  GLY108      0.2014
     85  C         53.6940   23.1680   -8.9300 C.2   108  GLY108      0.2639
     86  O         52.9930   22.9040   -7.9490 O.2   108  GLY108     -0.2714
     87  N         53.9780   22.2650   -9.8520 N.am  109  LEU109     -0.1963
     88  CA        53.4150   20.9250   -9.7570 C.3   109  LEU109      0.1728
     89  C         54.0580   20.1010   -8.6350 C.2   109  LEU109      0.2617
     90  O         53.3760   19.3440   -7.9690 O.2   109  LEU109     -0.2715
     91  CB        53.5410   20.2280  -11.1180 C.3   109  LEU109      0.0311
     92  CG        52.7830   18.9260  -11.3310 C.3   109  LEU109      0.0022
     93  CD1       51.3050   19.1320  -11.0680 C.3   109  LEU109      0.0001
     94  CD2       53.0200   18.4500  -12.7790 C.3   109  LEU109      0.0001
     95  N         55.3640   20.2400   -8.4370 N.am  110  GLY110     -0.1940
     96  CA        56.0040   19.5060   -7.3450 C.3   110  GLY110      0.2014
     97  C         55.3940   19.9360   -6.0130 C.2   110  GLY110      0.2638
     98  O         55.1040   19.1170   -5.1470 O.2   110  GLY110     -0.2714
     99  N         55.1850   21.2430   -5.8400 N.am  111  LYS111     -0.1977
    100  CA        54.5910   21.7460   -4.6110 C.3   111  LYS111      0.1596
    101  C         53.1970   21.1760   -4.4250 C.2   111  LYS111      0.2287
    102  O         52.8310   20.8050   -3.3190 O.2   111  LYS111     -0.2864
    103  CB        54.5370   23.2760   -4.6230 C.3   111  LYS111      0.0298
    104  CG        54.0700   23.8420   -3.2990 C.3   111  LYS111      0.0038
    105  CD        54.0230   25.3520   -3.3180 C.3   111  LYS111      0.0206
    106  CE        53.4140   25.8890   -2.0230 C.3   111  LYS111      0.1093
    107  NZ        52.0860   25.2760   -1.6880 N.3   111  LYS111     -0.1314
    108  N         61.3310   13.3370    4.7740 N.3   131  LEU131     -0.1231
    109  CA        61.8740   12.9730    3.4730 C.3   131  LEU131      0.1693
    110  C         63.3360   13.3670    3.4310 C.2   131  LEU131      0.2592
    111  O         63.8140   14.1060    4.2920 O.2   131  LEU131     -0.2718
    112  CB        61.1040   13.6580    2.3180 C.3   131  LEU131      0.0284
    113  CG        61.0370   15.1940    2.3430 C.3   131  LEU131      0.0019
    114  CD1       62.2380   15.7950    1.6480 C.3   131  LEU131      0.0001
    115  CD2       59.7620   15.6290    1.5780 C.3   131  LEU131      0.0001
    116  N         64.0390   12.8530    2.4450 N.am  132  ASP132     -0.1960
    117  CA        65.4440   13.2150    2.2380 C.3   132  ASP132      0.1840
    118  C         65.5850   13.8480    0.8740 C.2   132  ASP132      0.2622
    119  O         64.9480   13.4010   -0.0970 O.2   132  ASP132     -0.2715
    120  CB        66.3370   11.9760    2.2810 C.3   132  ASP132      0.1450
    121  CG        66.2380   11.2550    3.6080 C.2   132  ASP132      0.3671
    122  OD1       66.4590   11.9090    4.6660 O.co2 132  ASP132     -0.2456
    123  OD2       65.9230   10.0510    3.5770 O.co2 132  ASP132     -0.2456
    124  N         66.4670   14.8370    0.7880 N.am  133  CYS133     -0.1954
    125  CA        66.6940   15.5000   -0.4960 C.3   133  CYS133      0.1843
    126  C         68.1210   16.0180   -0.6270 C.2   133  CYS133      0.2625
    127  O         68.8670   16.1150    0.3680 O.2   133  CYS133     -0.2714
    128  CB        65.7120   16.6620   -0.6700 C.3   133  CYS133      0.0997
    129  SG        66.0060   18.0420    0.4550 S.3   133  CYS133     -0.0797
    130  N         68.5120   16.3490   -1.8620 N.am  134  ASP134     -0.1971
    131  CA        69.8500   16.8960   -2.0980 C.3   134  ASP134      0.1709
    132  C         69.7810   18.3350   -1.6260 C.2   134  ASP134      0.2293
    133  O         68.7040   18.9390   -1.5910 O.2   134  ASP134     -0.2864
    134  CB        70.2010   16.8510   -3.5860 C.3   134  ASP134      0.1436
    135  CG        70.1690   15.4460   -4.1410 C.2   134  ASP134      0.3671
    136  OD1       70.9870   14.6140   -3.7040 O.co2 134  ASP134     -0.2456
    137  OD2       69.3190   15.1660   -5.0110 O.co2 134  ASP134     -0.2456
    138  N         70.4820   20.8370   -3.1000 N.3   136  LYS136     -0.1231
    139  CA        69.9330   21.6790   -4.1800 C.3   136  LYS136      0.1693
    140  C         68.4070   21.7620   -4.1730 C.2   136  LYS136      0.2592
    141  O         67.8360   22.6370   -4.8250 O.2   136  LYS136     -0.2718
    142  CB        70.3910   21.1590   -5.5450 C.3   136  LYS136      0.0285
    143  CG        69.6790   19.8950   -5.9950 C.3   136  LYS136      0.0035
    144  CD        70.2040   19.4390   -7.3480 C.3   136  LYS136      0.0206
    145  CE        69.3250   18.3560   -7.9680 C.3   136  LYS136      0.1093
    146  NZ        69.3810   17.0650   -7.2350 N.3   136  LYS136     -0.1314
    147  N         67.7450   20.8410   -3.4680 N.am  137  ASN137     -0.1974
    148  CA        66.2780   20.8530   -3.4040 C.3   137  ASN137      0.1688
    149  C         65.7630   21.3450   -2.0390 C.2   137  ASN137      0.2292
    150  O         64.5510   21.4340   -1.8010 O.2   137  ASN137     -0.2864
    151  CB        65.7130   19.4510   -3.7030 C.3   137  ASN137      0.1181
    152  CG        65.8200   19.0700   -5.1780 C.2   137  ASN137      0.2629
    153  OD1       65.8960   19.9290   -6.0610 O.2   137  ASN137     -0.2716
    154  ND2       65.8060   17.7690   -5.4490 N.am  137  ASN137     -0.0877
    155  N         65.5210   24.2870   -0.6720 N.3   139  LYS139     -0.1231
    156  CA        64.6540   25.4580   -0.7430 C.3   139  LYS139      0.1693
    157  C         63.2750   25.0920   -1.2910 C.2   139  LYS139      0.2592
    158  O         62.2630   25.6440   -0.8490 O.2   139  LYS139     -0.2718
    159  CB        65.3420   26.5500   -1.5780 C.3   139  LYS139      0.0285
    160  CG        66.7100   26.9170   -1.0210 C.3   139  LYS139      0.0035
    161  CD        66.9980   28.4110   -1.1660 C.3   139  LYS139      0.0206
    162  CE        68.2920   28.7910   -0.4610 C.3   139  LYS139      0.1093
    163  NZ        69.4690   28.0960   -1.0790 N.3   139  LYS139     -0.1314
    164  N         63.2360   24.1560   -2.2320 N.am  140  PHE140     -0.1962
    165  CA        61.9580   23.6890   -2.7450 C.3   140  PHE140      0.1771
    166  C         61.1670   23.1140   -1.5570 C.2   140  PHE140      0.2619
    167  O         60.0230   23.4770   -1.3030 O.2   140  PHE140     -0.2715
    168  CB        62.1610   22.6010   -3.7960 C.3   140  PHE140      0.0574
    169  CG        60.9010   21.8410   -4.1300 C.ar  140  PHE140     -0.0200
    170  CD1       59.8120   22.4750   -4.7400 C.ar  140  PHE140     -0.0042
    171  CD2       60.7870   20.4850   -3.7990 C.ar  140  PHE140     -0.0042
    172  CE1       58.6300   21.7640   -5.0080 C.ar  140  PHE140     -0.0003
    173  CE2       59.6170   19.7700   -4.0620 C.ar  140  PHE140     -0.0003
    174  CZ        58.5340   20.4010   -4.6680 C.ar  140  PHE140     -0.0000
    175  N         61.7790   22.2250   -0.7800 N.am  141  TYR141     -0.1974
    176  CA        61.0070   21.6720    0.3180 C.3   141  TYR141      0.1639
    177  C         60.6630   22.6650    1.4210 C.2   141  TYR141      0.2290
    178  O         59.6610   22.5280    2.0950 O.2   141  TYR141     -0.2864
    179  CB        61.6900   20.4130    0.8720 C.3   141  TYR141      0.0560
    180  CG        61.5740   19.2880   -0.1130 C.ar  141  TYR141     -0.0198
    181  CD1       62.6690   18.8910   -0.8930 C.ar  141  TYR141     -0.0009
    182  CD2       60.3530   18.6480   -0.3050 C.ar  141  TYR141     -0.0009
    183  CE1       62.5380   17.8780   -1.8420 C.ar  141  TYR141      0.0417
    184  CE2       60.2160   17.6400   -1.2460 C.ar  141  TYR141      0.0417
    185  CZ        61.3010   17.2560   -2.0130 C.ar  141  TYR141      0.1957
    186  OH        61.1320   16.2450   -2.9390 O.3   141  TYR141     -0.2866
    187  N         59.7890   25.7370    0.7830 N.3   143  LYS143     -0.1245
    188  CA        58.6050   26.4010    0.2140 C.3   143  LYS143      0.1561
    189  C         57.3810   25.5140    0.4730 C.2   143  LYS143      0.2260
    190  O         56.2530   25.9980    0.5300 O.2   143  LYS143     -0.2867
    191  CB        58.7540   26.5680   -1.2930 C.3   143  LYS143      0.0271
    192  CG        59.7660   27.5720   -1.7370 C.3   143  LYS143      0.0035
    193  CD        59.2430   28.9910   -1.5550 C.3   143  LYS143      0.0206
    194  CE        59.9750   29.9530   -2.4900 C.3   143  LYS143      0.1093
    195  NZ        61.4530   29.9310   -2.3050 N.3   143  LYS143     -0.1314
@<TRIPOS>BOND
     1    81    80    2
     2     6     5    1
     3    80    82   am
     4    80    79    1
     5    61    62    1
     6    64    63    2
     7     1     2    1
     8     2     5    1
     9     2     3    1
    10     5     7    1
    11    79    78    1
    12    62    63    1
    13    62    65    1
    14    63    70   am
    15    65    66    1
    16    78    75    1
    17    68    67    2
    18    69    67   am
    19    67    66    1
    20    57    56    2
    21    56    55    1
    22    73    72    2
    23     3     4    2
    24     3     8   am
    25    94    92    1
    26    72    71    1
    27    72    74   am
    28    70    71    1
    29    75    74    1
    30    75    76    1
    31    59    58    1
    32     8     9    1
    33    55    58    1
    34    55    54    1
    35    58    60    1
    36    77    76    2
    37    76    83   am
    38    92    91    1
    39    92    93    1
    40    54    51   am
    41    91    88    1
    42    10     9    1
    43    10    11    2
    44     9    12    1
    45    52    51    2
    46    51    50    1
    47    53    50    1
    48    83    84    1
    49    12    13    1
    50    50    49    1
    51    87    88    1
    52    87    85   am
    53    88    89    1
    54    84    85    1
    55    85    86    2
    56    89    95   am
    57    89    90    2
    58    49    43   am
    59    95    96    1
    60    13    14    1
    61    13    15    1
    62   145   144    1
    63   145   146    1
    64    44    43    2
    65    43    42    1
    66   144   143    1
    67    96    97    1
    68    36    35    2
    69    42    41    1
    70    42    45    1
    71   153   152    2
    72    97    99   am
    73    97    98    2
    74   143   142    1
    75    35    41   am
    76    35    34    1
    77    99   100    1
    78    47    45    1
    79   142   139    1
    80   154   152   am
    81    37    34    1
    82    37    38    1
    83    45    46    1
    84   152   151    1
    85    34    33    1
    86   137   135   ar
    87   172   170   ar
    88   172   174   ar
    89    38    40   ar
    90    38    39   ar
    91   141   140    2
    92   170   169   ar
    93   174   173   ar
    94   103   100    1
    95   103   104    1
    96   100   101    1
    97   101   102    2
    98   139   140    1
    99   139   138    1
   100   140   147   am
   101   135   136   ar
   102   135   134    1
   103   169   171   ar
   104   169   168    1
   105   173   171   ar
   106    48    46    1
   107   168   165    1
   108   151   148    1
   109    33    26   am
   110   134   131    1
   111   147   148    1
   112   148   149    1
   113   105   104    1
   114   105   106    1
   115    27    26    2
   116   186   185    1
   117    26    25    1
   118   165   164    1
   119   165   166    1
   120   194   195    1
   121   194   193    1
   122   164   157   am
   123   131   130    1
   124   131   132    1
   125   149   150    2
   126   106   107    1
   127   185   183   ar
   128   185   184   ar
   129   130   126   am
   130   183   181   ar
   131   192   193    1
   132   192   191    1
   133   132   133    2
   134   159   160    1
   135   159   156    1
   136   166   167    2
   137   166   175   am
   138    25    28    1
   139    25    24    1
   140   191   188    1
   141   157   158    2
   142   157   156    1
   143   184   182   ar
   144   161   160    1
   145   161   162    1
   146   163   162    1
   147    28    29    1
   148   181   180   ar
   149   175   176    1
   150   156   155    1
   151   128   125    1
   152   128   129    1
   153   126   125    1
   154   126   127    2
   155    31    30   ar
   156    24    18   am
   157   125   124    1
   158   182   180   ar
   159    22    20    1
   160   180   179    1
   161   119   118    2
   162   188   189    1
   163   188   187    1
   164   176   179    1
   165   176   177    1
   166    29    30    1
   167    30    32   ar
   168   189   190    2
   169    18    19    2
   170    18    17    1
   171   124   118   am
   172   118   117    1
   173    20    17    1
   174    20    21    1
   175    17    16    1
   176   177   178    2
   177   115   113    1
   178   114   113    1
   179    21    23    1
   180   117   120    1
   181   117   116    1
   182   120   121    1
   183   112   113    1
   184   112   109    1
   185   116   110   am
   186   110   109    1
   187   110   111    2
   188   109   108    1
   189   123   121   ar
   190   121   122   ar
