@<TRIPOS>MOLECULE
tmp/1i18A00.pdb
 96 89 0 0 0
SMALL
GASTEIGER

@<TRIPOS>ATOM
      1  N          5.9710   -1.3710  -20.1190 N.3    41  SER41      -0.1217
      2  CA         4.8060   -0.6180  -19.5800 C.3    41  SER41       0.1889
      3  C          3.8120   -1.5860  -18.9430 C.2    41  SER41       0.2288
      4  O          3.0480   -2.2390  -19.6210 O.2    41  SER41      -0.2866
      5  CB         4.1770    0.0850  -20.7820 C.3    41  SER41       0.2089
      6  OG         4.4280   -0.6750  -21.9510 O.3    41  SER41      -0.2183
      7  N         -3.9160    1.3340  -15.6970 N.3    47  CYS47      -0.1221
      8  CA        -3.1390    2.6110  -15.7290 C.3    47  CYS47       0.1808
      9  C         -1.6910    2.3170  -16.1250 C.2    47  CYS47       0.2601
     10  O         -0.9950    1.5870  -15.4480 O.2    47  CYS47      -0.2717
     11  CB        -3.2130    3.1760  -14.3060 C.3    47  CYS47       0.0970
     12  SG        -2.5460    4.8580  -14.2940 S.3    47  CYS47      -0.0800
     13  N         -1.2970    2.7180  -17.3040 N.am   48  CYS48      -0.1956
     14  CA         0.0250    2.2740  -17.8330 C.3    48  CYS48       0.1843
     15  C          1.1700    3.0470  -17.1780 C.2    48  CYS48       0.2625
     16  O          1.2230    4.2600  -17.2170 O.2    48  CYS48      -0.2714
     17  CB        -0.0170    2.5680  -19.3310 C.3    48  CYS48       0.0997
     18  SG        -0.1610    4.3530  -19.5920 S.3    48  CYS48      -0.0797
     19  N          2.1510    2.3370  -16.7010 N.am   49  LEU49      -0.1963
     20  CA         3.3810    2.9990  -16.1820 C.3    49  LEU49       0.1728
     21  C          4.5950    2.1080  -16.4660 C.2    49  LEU49       0.2616
     22  O          4.4520    0.9720  -16.8640 O.2    49  LEU49      -0.2715
     23  CB         3.1410    3.1540  -14.6810 C.3    49  LEU49       0.0311
     24  CG         2.5750    1.8550  -14.1130 C.3    49  LEU49       0.0022
     25  CD1        3.2570    1.5590  -12.7800 C.3    49  LEU49       0.0001
     26  CD2        1.0640    2.0020  -13.8970 C.3    49  LEU49       0.0001
     27  N          5.7790    2.6560  -16.4330 N.am   50  THR50      -0.1951
     28  CA         6.9650    1.8720  -16.8960 C.3    50  THR50       0.1897
     29  C          7.7490    1.3070  -15.7100 C.2    50  THR50       0.2313
     30  O          7.7290    1.8460  -14.6180 O.2    50  THR50      -0.2863
     31  CB         7.8280    2.8640  -17.6800 C.3    50  THR50       0.1794
     32  OG1        7.0210    3.5390  -18.6350 O.3    50  THR50      -0.2208
     33  CG2        8.9510    2.1070  -18.3990 C.3    50  THR50       0.0378
     34  N          7.5440    3.6340  -11.9000 N.3    62  ASP62      -0.1225
     35  CA         7.6010    5.0850  -11.5460 C.3    62  ASP62       0.1805
     36  C          6.2110    5.7070  -11.5540 C.2    62  ASP62       0.2598
     37  O          5.3100    5.2590  -12.2340 O.2    62  ASP62      -0.2718
     38  CB         8.4870    5.7420  -12.6080 C.3    62  ASP62       0.1424
     39  CG         7.9250    5.4540  -14.0020 C.2    62  ASP62       0.3668
     40  OD1        7.1620    4.5100  -14.1310 O.co2  62  ASP62      -0.2456
     41  OD2        8.2680    6.1810  -14.9190 O.co2  62  ASP62      -0.2456
     42  N          6.0180    6.6860  -10.7210 N.am   63  LEU63      -0.1966
     43  CA         4.6750    7.2940  -10.5670 C.3    63  LEU63       0.1728
     44  C          4.8230    8.7360  -10.0810 C.2    63  LEU63       0.2616
     45  O          5.3190    8.9850   -8.9990 O.2    63  LEU63      -0.2715
     46  CB         4.0030    6.4350   -9.5000 C.3    63  LEU63       0.0311
     47  CG         2.7700    5.7470  -10.0830 C.3    63  LEU63       0.0022
     48  CD1        2.8890    4.2410   -9.8440 C.3    63  LEU63       0.0001
     49  CD2        1.5040    6.2810   -9.3960 C.3    63  LEU63       0.0001
     50  N          4.3860    9.6900  -10.8520 N.am   64  MET64      -0.1977
     51  CA         4.4970   11.1060  -10.4010 C.3    64  MET64       0.1605
     52  C          3.5230   11.3660   -9.2500 C.2    64  MET64       0.2287
     53  O          2.4100   10.8950   -9.2560 O.2    64  MET64      -0.2864
     54  CB         4.1350   11.9480  -11.6240 C.3    64  MET64       0.0413
     55  CG         5.3920   12.2190  -12.4480 C.3    64  MET64       0.0598
     56  SD         4.9590   13.2140  -13.8970 S.3    64  MET64      -0.1393
     57  CE         4.5430   14.7360  -13.0120 C.3    64  MET64       0.0692
     58  N          0.6670   13.1710  -10.6340 N.3    67  THR67      -0.1218
     59  CA        -0.0240   12.1440  -11.4620 C.3    67  THR67       0.1862
     60  C         -0.7350   11.1460  -10.5450 C.2    67  THR67       0.2287
     61  O         -1.7940   10.6540  -10.8510 O.2    67  THR67      -0.2866
     62  CB         1.0790   11.4510  -12.2560 C.3    67  THR67       0.1770
     63  OG1        1.7730   12.4150  -13.0380 O.3    67  THR67      -0.2211
     64  CG2        0.4610   10.3980  -13.1790 C.3    67  THR67       0.0375
     65  N         -3.8150   12.8900   -9.4530 N.3    70  ILE70      -0.1231
     66  CA        -4.6580   13.1240  -10.6540 C.3    70  ILE70       0.1692
     67  C         -5.2550   11.7960  -11.1200 C.2    70  ILE70       0.2592
     68  O         -6.4280   11.6940  -11.4190 O.2    70  ILE70      -0.2718
     69  CB        -3.6680   13.7250  -11.6680 C.3    70  ILE70       0.0266
     70  CG1       -4.3170   14.9170  -12.3710 C.3    70  ILE70       0.0019
     71  CG2       -3.2110   12.7020  -12.7170 C.3    70  ILE70       0.0020
     72  CD1       -3.3630   15.4640  -13.4350 C.3    70  ILE70       0.0001
     73  N         -4.4710   10.7620  -11.0670 N.am   71  THR71      -0.1953
     74  CA        -4.9960    9.4100  -11.3760 C.3    71  THR71       0.1897
     75  C         -5.5960    8.8030  -10.1160 C.2    71  THR71       0.2313
     76  O         -5.5430    9.3850   -9.0520 O.2    71  THR71      -0.2863
     77  CB        -3.7870    8.5830  -11.8200 C.3    71  THR71       0.1794
     78  OG1       -2.8860    8.4480  -10.7300 O.3    71  THR71      -0.2208
     79  CG2       -3.0790    9.2720  -12.9820 C.3    71  THR71       0.0378
     80  N         -4.0260    6.1990   -9.0050 N.3    73  LEU73      -0.1245
     81  CA        -2.8740    5.3370   -8.6180 C.3    73  LEU73       0.1561
     82  C         -2.5780    5.4970   -7.1190 C.2    73  LEU73       0.2260
     83  O         -2.2690    4.5430   -6.4330 O.2    73  LEU73      -0.2867
     84  CB        -1.7010    5.8380   -9.4650 C.3    73  LEU73       0.0270
     85  CG        -1.9240    5.4700  -10.9390 C.3    73  LEU73       0.0019
     86  CD1       -0.8630    6.1500  -11.8050 C.3    73  LEU73       0.0001
     87  CD2       -1.8180    3.9520  -11.1060 C.3    73  LEU73       0.0001
     88  N          5.9210   -0.7190  -25.7260 N.3    89  LYS89      -0.1245
     89  CA         6.0960    0.6640  -26.2550 C.3    89  LYS89       0.1561
     90  C          5.8230    0.6910  -27.7620 C.2    89  LYS89       0.2260
     91  O          5.2200    1.6120  -28.2780 O.2    89  LYS89      -0.2867
     92  CB         7.5590    1.0070  -25.9740 C.3    89  LYS89       0.0271
     93  CG         7.8160    0.9400  -24.4680 C.3    89  LYS89       0.0035
     94  CD         6.8190    1.8390  -23.7380 C.3    89  LYS89       0.0206
     95  CE         7.2660    2.0200  -22.2850 C.3    89  LYS89       0.1093
     96  NZ         8.1950    3.1830  -22.3120 N.3    89  LYS89      -0.1314
@<TRIPOS>BOND
     1    91    90    2
     2    90    89    1
     3    89    92    1
     4    89    88    1
     5    92    93    1
     6    93    94    1
     7    94    95    1
     8    96    95    1
     9     6     5    1
    10     5     2    1
    11     1     2    1
    12     4     3    2
    13    18    17    1
    14     2     3    1
    15    17    14    1
    16    32    31    1
    17    33    31    1
    18    14    13    1
    19    14    15    1
    20    31    28    1
    21    13     9   am
    22    16    15    2
    23    15    19   am
    24    28    27    1
    25    28    29    1
    26    22    21    2
    27    19    20    1
    28    21    27   am
    29    21    20    1
    30    20    23    1
    31     9     8    1
    32     9    10    2
    33     8     7    1
    34     8    11    1
    35    29    30    2
    36    41    39   ar
    37    23    24    1
    38    11    12    1
    39    40    39   ar
    40    24    26    1
    41    24    25    1
    42    39    38    1
    43    56    57    1
    44    56    55    1
    45    72    70    1
    46    64    62    1
    47    63    62    1
    48    79    77    1
    49    71    69    1
    50    38    35    1
    51    55    54    1
    52    70    69    1
    53    62    59    1
    54    37    36    2
    55    34    35    1
    56    77    74    1
    57    77    78    1
    58    86    85    1
    59    69    66    1
    60    54    51    1
    61    36    35    1
    62    36    42   am
    63    59    58    1
    64    59    60    1
    65    68    67    2
    66    74    73    1
    67    74    75    1
    68    67    73   am
    69    67    66    1
    70    87    85    1
    71    85    84    1
    72    50    51    1
    73    50    44   am
    74    61    60    2
    75    42    43    1
    76    66    65    1
    77    43    44    1
    78    43    46    1
    79    51    52    1
    80    75    76    2
    81    47    48    1
    82    47    46    1
    83    47    49    1
    84    44    45    2
    85    84    81    1
    86    53    52    2
    87    80    81    1
    88    81    82    1
    89    82    83    2
