@<TRIPOS>MOLECULE
tmp/1i1aA00.pdb
 88 86 0 0 0
SMALL
GASTEIGER

@<TRIPOS>ATOM
      1  N         16.3730   33.6580    8.6210 N.3   122  THR122     -0.1218
      2  CA        17.0640   34.6370    7.7470 C.3   122  THR122      0.1862
      3  C         17.9180   33.9590    6.6630 C.2   122  THR122      0.2287
      4  O         18.1840   34.5470    5.6230 O.2   122  THR122     -0.2866
      5  CB        18.0300   35.5880    8.5470 C.3   122  THR122      0.1770
      6  OG1       19.0540   34.8140    9.1740 O.3   122  THR122     -0.2211
      7  CG2       17.3010   36.3630    9.6310 C.3   122  THR122      0.0375
      8  N         21.1200   33.0470    7.0390 N.3   124  ASN124     -0.1225
      9  CA        22.4610   33.6400    7.0990 C.3   124  ASN124      0.1785
     10  C         23.4180   33.0750    8.1740 C.2   124  ASN124      0.2597
     11  O         23.0070   32.8060    9.3040 O.2   124  ASN124     -0.2718
     12  CB        22.3080   35.1550    7.2910 C.3   124  ASN124      0.1169
     13  CG        23.6300   35.8910    7.2770 C.2   124  ASN124      0.2627
     14  OD1       24.3960   35.8320    8.2410 O.2   124  ASN124     -0.2716
     15  ND2       23.8930   36.5840    6.1700 N.am  124  ASN124     -0.0877
     16  N         24.6930   32.9110    7.8040 N.am  125  TRP125     -0.1962
     17  CA        25.7620   32.4140    8.7010 C.3   125  TRP125      0.1771
     18  C         26.4810   33.5540    9.4660 C.2   125  TRP125      0.2620
     19  O         27.0560   34.4540    8.8730 O.2   125  TRP125     -0.2715
     20  CB        26.7950   31.6380    7.8940 C.3   125  TRP125      0.0590
     21  CG        26.3590   30.2690    7.5140 C.ar  125  TRP125      0.0006
     22  CD1       26.5370   29.1160    8.2290 C.ar  125  TRP125      0.0946
     23  CD2       25.7390   29.8870    6.2910 C.ar  125  TRP125      0.0152
     24  NE1       26.0780   28.0390    7.5150 N.ar  125  TRP125     -0.2442
     25  CE2       25.5840   28.4830    6.3200 C.ar  125  TRP125      0.0810
     26  CE3       25.3010   30.5960    5.1670 C.ar  125  TRP125      0.0012
     27  CZ2       25.0180   27.7770    5.2770 C.ar  125  TRP125      0.0191
     28  CZ3       24.7350   29.8940    4.1270 C.ar  125  TRP125      0.0001
     29  CH2       24.5990   28.4920    4.1880 C.ar  125  TRP125      0.0015
     30  N         26.4600   33.4820   10.7900 N.am  126  SER126     -0.1936
     31  CA        27.0470   34.4920   11.6580 C.3   126  SER126      0.2058
     32  C         28.3440   33.9980   12.2840 C.2   126  SER126      0.2682
     33  O         28.5630   32.7910   12.3970 O.2   126  SER126     -0.2710
     34  CB        26.0530   34.8230   12.7690 C.3   126  SER126      0.2130
     35  OG        24.7160   34.7590   12.2910 O.3   126  SER126     -0.2179
     36  N         29.1940   34.9380   12.6990 N.am  127  GLY127     -0.1729
     37  CA        30.4540   34.5680   13.3170 C.2   127  GLY127      0.1340
     38  C         31.5110   35.6500   13.3970 C.2   127  GLY127      0.2521
     39  O         31.7180   36.4150   12.4630 O.2   127  GLY127     -0.2816
     40  N         34.8640   35.3200   13.4470 N.3   129  TRP129     -0.1241
     41  CA        36.2250   34.9000   13.0580 C.3   129  TRP129      0.1605
     42  C         36.6730   34.9140   11.5990 C.2   129  TRP129      0.2264
     43  O         35.8760   35.0210   10.6650 O.2   129  TRP129     -0.2867
     44  CB        36.5030   33.4820   13.5860 C.3   129  TRP129      0.0550
     45  CG        36.1730   33.3400   15.0080 C.ar  129  TRP129      0.0003
     46  CD1       34.9430   33.0960   15.5400 C.ar  129  TRP129      0.0946
     47  CD2       37.0410   33.6040   16.1050 C.ar  129  TRP129      0.0152
     48  NE1       34.9890   33.2050   16.9000 N.ar  129  TRP129     -0.2442
     49  CE2       36.2650   33.5200   17.2770 C.ar  129  TRP129      0.0810
     50  CE3       38.4000   33.9150   16.2110 C.ar  129  TRP129      0.0012
     51  CZ2       36.7990   33.7340   18.5420 C.ar  129  TRP129      0.0191
     52  CZ3       38.9340   34.1270   17.4670 C.ar  129  TRP129      0.0001
     53  CH2       38.1320   34.0360   18.6180 C.ar  129  TRP129      0.0015
     54  N         35.1980   32.1010   10.0510 N.3   132  THR132     -0.1203
     55  CA        33.7800   32.3180    9.8350 C.3   132  THR132      0.1994
     56  C         33.5710   32.8850    8.4310 C.2   132  THR132      0.2617
     57  O         32.5780   32.5910    7.7610 O.2   132  THR132     -0.2717
     58  CB        33.2010   33.3180   10.8190 C.3   132  THR132      0.1784
     59  OG1       33.7240   33.0670   12.1330 O.3   132  THR132     -0.2211
     60  CG2       31.7080   33.1720   10.8560 C.3   132  THR132      0.0376
     61  N         34.5070   33.7030    7.9690 N.am  133  ASP133     -0.1973
     62  CA        34.3590   34.2590    6.6420 C.3   133  ASP133      0.1709
     63  C         34.7280   33.2130    5.6140 C.2   133  ASP133      0.2293
     64  O         33.9910   32.9840    4.6600 O.2   133  ASP133     -0.2864
     65  CB        35.2090   35.5230    6.4620 C.3   133  ASP133      0.1436
     66  CG        34.4800   36.8100    6.9250 C.2   133  ASP133      0.3671
     67  OD1       33.2180   36.8560    6.9170 O.co2 133  ASP133     -0.2456
     68  OD2       35.1780   37.7890    7.2770 O.co2 133  ASP133     -0.2456
     69  N         31.9090   30.3240    5.9690 N.3   136  GLY136     -0.1210
     70  CA        30.6140   30.9530    5.7730 C.3   136  GLY136      0.1956
     71  C         30.3300   31.4940    4.3890 C.2   136  GLY136      0.2611
     72  O         29.1860   31.5150    3.9480 O.2   136  GLY136     -0.2717
     73  N         31.3750   31.9480    3.7090 N.am  137  ASN137     -0.1974
     74  CA        31.2320   32.4890    2.3720 C.3   137  ASN137      0.1688
     75  C         31.2300   31.4010    1.3220 C.2   137  ASN137      0.2292
     76  O         30.5730   31.5470    0.2980 O.2   137  ASN137     -0.2864
     77  CB        32.3550   33.4740    2.0760 C.3   137  ASN137      0.1181
     78  CG        31.9970   34.8840    2.4690 C.2   137  ASN137      0.2629
     79  OD1       31.7830   35.1870    3.6430 O.2   137  ASN137     -0.2716
     80  ND2       31.9160   35.7600    1.4790 N.am  137  ASN137     -0.0877
     81  N         27.5050   30.0180    1.4410 N.3   140  MET140     -0.1245
     82  CA        26.5870   31.0470    0.9610 C.3   140  MET140      0.1570
     83  C         26.7780   31.3150   -0.5440 C.2   140  MET140      0.2261
     84  O         25.9070   31.8920   -1.2020 O.2   140  MET140     -0.2867
     85  CB        26.8090   32.3200    1.7650 C.3   140  MET140      0.0387
     86  CG        25.8730   33.4430    1.4370 C.3   140  MET140      0.0595
     87  SD        26.2170   34.7910    2.5550 S.3   140  MET140     -0.1393
     88  CE        28.0270   34.8170    2.4500 C.3   140  MET140      0.0692
@<TRIPOS>BOND
     1    84    83    2
     2    83    82    1
     3    76    75    2
     4    82    81    1
     5    82    85    1
     6    75    74    1
     7    86    85    1
     8    86    87    1
     9    80    78   am
    10    77    74    1
    11    77    78    1
    12    74    73    1
    13    88    87    1
    14    78    79    2
    15    73    71   am
    16    72    71    2
    17    28    29   ar
    18    28    26   ar
    19    29    27   ar
    20    71    70    1
    21    64    63    2
    22    26    23   ar
    23    27    25   ar
    24    63    62    1
    25     4     3    2
    26    70    69    1
    27    15    13   am
    28    23    25   ar
    29    23    21   ar
    30    25    24   ar
    31    65    62    1
    32    65    66    1
    33    62    61    1
    34     3     2    1
    35    67    66   ar
    36    66    68   ar
    37     8     9    1
    38     9    12    1
    39     9    10    1
    40    13    12    1
    41    13    14    2
    42    21    20    1
    43    21    22   ar
    44    24    22   ar
    45     2     5    1
    46     2     1    1
    47    57    56    2
    48    16    10   am
    49    16    17    1
    50    20    17    1
    51    61    56   am
    52    10    11    2
    53    56    55    1
    54     5     6    1
    55     5     7    1
    56    17    18    1
    57    19    18    2
    58    18    30   am
    59    55    54    1
    60    55    58    1
    61    43    42    2
    62    30    31    1
    63    58    60    1
    64    58    59    1
    65    42    41    1
    66    31    32    1
    67    31    34    1
    68    32    33    2
    69    32    36    1
    70    35    34    1
    71    39    38    2
    72    36    37    2
    73    41    40    1
    74    41    44    1
    75    37    38    1
    76    44    45    1
    77    45    46   ar
    78    45    47   ar
    79    46    48   ar
    80    47    50   ar
    81    47    49   ar
    82    50    52   ar
    83    48    49   ar
    84    49    51   ar
    85    52    53   ar
    86    51    53   ar
