@<TRIPOS>MOLECULE
tmp/1i1cB00.pdb
 138 130 0 0 0
SMALL
GASTEIGER

@<TRIPOS>ATOM
      1  N         27.4020   -8.7960   32.4510 N.3     1  SER1       -0.1217
      2  CA        26.0360   -9.0030   31.8730 C.3     1  SER1        0.1889
      3  C         26.0230   -9.9820   30.6880 C.2     1  SER1        0.2288
      4  O         26.7230   -9.7800   29.6950 O.2     1  SER1       -0.2866
      5  CB        25.4640   -7.6610   31.4320 C.3     1  SER1        0.2089
      6  OG        25.5320   -6.7290   32.4920 O.3     1  SER1       -0.2183
      7  N         23.7110  -11.9190   27.7770 N.3     3  PHE3       -0.1241
      8  CA        22.4530  -11.9160   27.0420 C.3     3  PHE3        0.1605
      9  C         22.3450  -13.1260   26.1090 C.2     3  PHE3        0.2264
     10  O         23.3070  -13.4900   25.4310 O.2     3  PHE3       -0.2867
     11  CB        22.3250  -10.6230   26.2400 C.3     3  PHE3        0.0534
     12  CG        22.3110   -9.3900   27.0900 C.ar    3  PHE3       -0.0203
     13  CD1       21.2380   -9.1210   27.9300 C.ar    3  PHE3       -0.0042
     14  CD2       23.3800   -8.5000   27.0640 C.ar    3  PHE3       -0.0042
     15  CE1       21.2280   -7.9820   28.7340 C.ar    3  PHE3       -0.0003
     16  CE2       23.3800   -7.3540   27.8670 C.ar    3  PHE3       -0.0003
     17  CZ        22.3000   -7.0980   28.7020 C.ar    3  PHE3       -0.0000
     18  N         20.1000  -15.1280   22.9600 N.3     5  PHE5       -0.1228
     19  CA        19.1940  -14.8480   21.8450 C.3     5  PHE5        0.1721
     20  C         18.6760  -16.0830   21.1190 C.2     5  PHE5        0.2437
     21  O         19.3970  -17.0580   20.9400 O.2     5  PHE5       -0.2733
     22  CB        19.9030  -13.9260   20.8580 C.3     5  PHE5        0.0547
     23  CG        20.3290  -12.6250   21.4600 C.ar    5  PHE5       -0.0202
     24  CD1       19.4650  -11.5410   21.4900 C.ar    5  PHE5       -0.0042
     25  CD2       21.5940  -12.4920   22.0190 C.ar    5  PHE5       -0.0042
     26  CE1       19.8520  -10.3340   22.0700 C.ar    5  PHE5       -0.0003
     27  CE2       21.9950  -11.2920   22.6030 C.ar    5  PHE5       -0.0003
     28  CZ        21.1200  -10.2090   22.6280 C.ar    5  PHE5       -0.0000
     29  N         17.4110  -16.0490   20.6840 N.am    6  PRO6       -0.2729
     30  CA        16.7890  -17.1690   19.9760 C.3     6  PRO6        0.1401
     31  C         17.3080  -17.3470   18.5540 C.2     6  PRO6        0.2269
     32  O         17.9370  -16.4460   17.9920 O.2     6  PRO6       -0.2865
     33  CB        15.3070  -16.8040   19.9970 C.3     6  PRO6        0.0296
     34  CG        15.3470  -15.3140   19.8660 C.3     6  PRO6        0.0237
     35  CD        16.4500  -14.9420   20.8480 C.3     6  PRO6        0.0939
     36  N         17.1660  -17.8350   14.3930 N.3     8  LYS8       -0.1245
     37  CA        16.4930  -17.0250   13.3890 C.3     8  LYS8        0.1561
     38  C         15.3810  -17.8670   12.7800 C.2     8  LYS8        0.2260
     39  O         15.5900  -19.0390   12.4670 O.2     8  LYS8       -0.2867
     40  CB        17.4750  -16.6080   12.2930 C.3     8  LYS8        0.0271
     41  CG        17.9820  -15.1800   12.3950 C.3     8  LYS8        0.0035
     42  CD        18.7510  -14.9370   13.6780 C.3     8  LYS8        0.0206
     43  CE        19.2860  -13.5170   13.7260 C.3     8  LYS8        0.1093
     44  NZ        18.1800  -12.5270   13.5830 N.3     8  LYS8       -0.1314
     45  N         22.3110  -17.9350   20.4240 N.3    22  THR22      -0.1218
     46  CA        23.5090  -17.1230   20.6340 C.3    22  THR22       0.1862
     47  C         23.5660  -16.5250   22.0280 C.2    22  THR22       0.2287
     48  O         22.5660  -16.0130   22.5370 O.2    22  THR22      -0.2866
     49  CB        23.6050  -15.9520   19.6240 C.3    22  THR22       0.1770
     50  OG1       23.7400  -16.4670   18.2930 O.3    22  THR22      -0.2211
     51  CG2       24.8000  -15.0710   19.9510 C.3    22  THR22       0.0375
     52  N         25.6760  -13.7470   24.2640 N.3    24  VAL24      -0.1245
     53  CA        26.5900  -12.6090   24.1970 C.3    24  VAL24       0.1561
     54  C         26.9880  -12.0730   25.5740 C.2    24  VAL24       0.2260
     55  O         26.1330  -11.7860   26.4140 O.2    24  VAL24      -0.2867
     56  CB        25.9590  -11.4510   23.3850 C.3    24  VAL24       0.0252
     57  CG1       26.9620  -10.3230   23.2110 C.3    24  VAL24       0.0019
     58  CG2       25.4890  -11.9620   22.0410 C.3    24  VAL24       0.0019
     59  N         28.8570   -9.0450   27.5250 N.3    26  VAL26      -0.1231
     60  CA        29.3580   -7.6780   27.4440 C.3    26  VAL26       0.1692
     61  C         29.9300   -7.2150   28.7810 C.2    26  VAL26       0.2592
     62  O         29.7600   -7.8760   29.8110 O.2    26  VAL26      -0.2718
     63  CB        28.2530   -6.6820   27.0150 C.3    26  VAL26       0.0266
     64  CG1       27.7260   -7.0550   25.6430 C.3    26  VAL26       0.0020
     65  CG2       27.1290   -6.6640   28.0390 C.3    26  VAL26       0.0020
     66  N         30.6080   -6.0710   28.7510 N.am   27  ASP27      -0.1974
     67  CA        31.2270   -5.4970   29.9420 C.3    27  ASP27       0.1709
     68  C         32.2050   -6.4800   30.5780 C.2    27  ASP27       0.2293
     69  O         32.0340   -6.9070   31.7250 O.2    27  ASP27      -0.2864
     70  CB        30.1520   -5.0720   30.9550 C.3    27  ASP27       0.1436
     71  CG        29.3010   -3.9040   30.4540 C.2    27  ASP27       0.3671
     72  OD1       29.8760   -2.8530   30.0950 O.co2  27  ASP27      -0.2456
     73  OD2       28.0570   -4.0300   30.4210 O.co2  27  ASP27      -0.2456
     74  N         35.3500   -2.6280   22.5500 N.3    57  GLN57      -0.1231
     75  CA        34.2670   -1.6970   22.2680 C.3    57  GLN57       0.1698
     76  C         34.7650   -0.3030   22.6300 C.2    57  GLN57       0.2593
     77  O         35.8130   -0.1620   23.2560 O.2    57  GLN57      -0.2718
     78  CB        33.0430   -2.0430   23.1130 C.3    57  GLN57       0.0381
     79  CG        32.6030   -3.4960   23.0090 C.3    57  GLN57       0.0905
     80  CD        32.0970   -3.8620   21.6330 C.2    57  GLN57       0.2608
     81  OE1       31.1100   -3.3080   21.1580 O.2    57  GLN57      -0.2717
     82  NE2       32.7690   -4.8010   20.9840 N.am   57  GLN57      -0.0878
     83  N         34.0170    0.7220   22.2410 N.am   58  SER58      -0.1938
     84  CA        34.4030    2.0990   22.5320 C.3    58  SER58       0.2055
     85  C         34.7840    2.2900   23.9980 C.2    58  SER58       0.2643
     86  O         35.8380    2.8480   24.3080 O.2    58  SER58      -0.2714
     87  CB        33.2590    3.0480   22.1860 C.3    58  SER58       0.2130
     88  OG        32.1260    2.7700   22.9890 O.3    58  SER58      -0.2179
     89  N         33.9230    1.8190   24.8970 N.am   59  ASN59      -0.1971
     90  CA        34.1580    1.9520   26.3330 C.3    59  ASN59       0.1688
     91  C         35.2560    1.0550   26.9050 C.2    59  ASN59       0.2292
     92  O         35.1710    0.6160   28.0510 O.2    59  ASN59      -0.2864
     93  CB        32.8570    1.7120   27.1070 C.3    59  ASN59       0.1181
     94  CG        32.1650    0.4260   26.7060 C.2    59  ASN59       0.2629
     95  OD1       32.8250   -0.5580   26.3840 O.2    59  ASN59      -0.2716
     96  ND2       30.8340    0.4260   26.7390 N.am   59  ASN59      -0.0877
     97  N         35.7750   -1.7950   27.0090 N.3    61  THR61      -0.1203
     98  CA        35.3330   -3.0740   27.5590 C.3    61  THR61       0.1994
     99  C         35.3670   -4.1060   26.4450 C.2    61  THR61       0.2618
    100  O         35.5780   -3.7660   25.2850 O.2    61  THR61      -0.2717
    101  CB        33.8960   -3.0090   28.1000 C.3    61  THR61       0.1784
    102  OG1       32.9800   -2.8840   27.0070 O.3    61  THR61      -0.2211
    103  CG2       33.7320   -1.8230   29.0350 C.3    61  THR61       0.0376
    104  N         35.1500   -5.3670   26.7930 N.am   62  LEU62      -0.1965
    105  CA        35.1740   -6.4150   25.7910 C.3    62  LEU62       0.1728
    106  C         33.8100   -7.0640   25.6070 C.2    62  LEU62       0.2616
    107  O         32.8890   -6.8410   26.3910 O.2    62  LEU62      -0.2715
    108  CB        36.2240   -7.4640   26.1580 C.3    62  LEU62       0.0311
    109  CG        37.6280   -6.8860   26.3600 C.3    62  LEU62       0.0022
    110  CD1       38.6090   -8.0070   26.6010 C.3    62  LEU62       0.0001
    111  CD2       38.0370   -6.0790   25.1470 C.3    62  LEU62       0.0001
    112  N         33.6940   -7.8670   24.5560 N.am   63  ARG63      -0.1977
    113  CA        32.4500   -8.5440   24.2220 C.3    63  ARG63       0.1597
    114  C         32.7810   -9.8940   23.5970 C.2    63  ARG63       0.2287
    115  O         33.6300   -9.9810   22.7130 O.2    63  ARG63      -0.2864
    116  CB        31.6660   -7.6680   23.2420 C.3    63  ARG63       0.0334
    117  CG        30.3570   -8.2270   22.7230 C.3    63  ARG63       0.0492
    118  CD        29.6360   -7.1550   21.9060 C.3    63  ARG63       0.2205
    119  NE        28.4220   -7.6340   21.2510 N.pl3  63  ARG63      -0.0865
    120  CZ        28.3990   -8.3620   20.1390 C.cat  63  ARG63       0.5346
    121  NH1       29.5310   -8.7030   19.5420 N.pl3  63  ARG63       0.1354
    122  NH2       27.2430   -8.7500   19.6280 N.pl3  63  ARG63       0.1354
    123  N         31.1010  -13.6080   21.9620 N.3    65  VAL65      -0.1245
    124  CA        29.9170  -14.2480   21.4070 C.3    65  VAL65       0.1561
    125  C         30.1050  -15.7510   21.2560 C.2    65  VAL65       0.2260
    126  O         31.1400  -16.2120   20.7700 O.2    65  VAL65      -0.2867
    127  CB        29.5710  -13.6670   20.0160 C.3    65  VAL65       0.0252
    128  CG1       28.3340  -14.3450   19.4700 C.3    65  VAL65       0.0019
    129  CG2       29.3520  -12.1740   20.1100 C.3    65  VAL65       0.0019
    130  N         21.9640  -17.9760   31.7090 N.3    96  LYS96      -0.1245
    131  CA        20.8690  -17.4110   30.9450 C.3    96  LYS96       0.1561
    132  C         20.2860  -18.5580   30.1550 C.2    96  LYS96       0.2260
    133  O         21.0220  -19.3660   29.5880 O.2    96  LYS96      -0.2867
    134  CB        21.3590  -16.3080   30.0080 C.3    96  LYS96       0.0271
    135  CG        21.5070  -14.9660   30.6980 C.3    96  LYS96       0.0035
    136  CD        20.1890  -14.5470   31.3480 C.3    96  LYS96       0.0206
    137  CE        20.3000  -13.1910   32.0300 C.3    96  LYS96       0.1093
    138  NZ        20.6320  -12.1100   31.0570 N.3    96  LYS96      -0.1314
@<TRIPOS>BOND
     1    40    41    1
     2    40    37    1
     3    41    42    1
     4    39    38    2
     5    38    37    1
     6    37    36    1
     7    44    43    1
     8    42    43    1
     9    32    31    2
    10    50    49    1
    11    31    30    1
    12   128   127    1
    13   121   120    1
    14    49    51    1
    15    49    46    1
    16   122   120    1
    17    34    33    1
    18    34    35    1
    19    30    33    1
    20    30    29    1
    21   127   129    1
    22   127   124    1
    23   120   119    2
    24    45    46    1
    25    46    47    1
    26    29    35    1
    27    29    20   am
    28   126   125    2
    29    22    23    1
    30    22    19    1
    31    21    20    2
    32    82    80   am
    33    20    19    1
    34    81    80    2
    35   119   118    1
    36   125   124    1
    37   124   123    1
    38    23    24   ar
    39    23    25   ar
    40    24    26   ar
    41    80    79    1
    42    19    18    1
    43   118   117    1
    44    25    27   ar
    45    47    48    2
    46    58    56    1
    47    26    28   ar
    48    87    84    1
    49    87    88    1
    50    83    84    1
    51    83    76   am
    52    75    74    1
    53    75    76    1
    54    75    78    1
    55    84    85    1
    56    27    28   ar
    57    76    77    2
    58   115   114    2
    59   117   116    1
    60    79    78    1
    61    57    56    1
    62   116   113    1
    63    56    53    1
    64   114   113    1
    65    85    86    2
    66    85    89   am
    67    53    52    1
    68    53    54    1
    69   113   112    1
    70   112   106   am
    71    89    90    1
    72   111   109    1
    73   100    99    2
    74    10     9    2
    75    54    55    2
    76   106   105    1
    77   106   107    2
    78    64    63    1
    79   105   108    1
    80   105   104    1
    81     9     8    1
    82   108   109    1
    83    11     8    1
    84    11    12    1
    85    90    91    1
    86    90    93    1
    87   109   110    1
    88    95    94    2
    89    99   104   am
    90    99    98    1
    91    94    96   am
    92    94    93    1
    93    91    92    2
    94   102   101    1
    95    97    98    1
    96    63    60    1
    97    63    65    1
    98     8     7    1
    99    14    12   ar
   100    14    16   ar
   101    12    13   ar
   102    60    59    1
   103    60    61    1
   104    98   101    1
   105    16    17   ar
   106    13    15   ar
   107   101   103    1
   108    17    15   ar
   109    66    61   am
   110    66    67    1
   111    61    62    2
   112   133   132    2
   113     4     3    2
   114    67    68    1
   115    67    70    1
   116   134   135    1
   117   134   131    1
   118    72    71   ar
   119   132   131    1
   120    73    71   ar
   121    71    70    1
   122    68    69    2
   123     3     2    1
   124   135   136    1
   125   131   130    1
   126   138   137    1
   127   136   137    1
   128     5     2    1
   129     5     6    1
   130     2     1    1
