@<TRIPOS>MOLECULE
tmp/1i1dD01.pdb
 102 97 0 0 0
SMALL
GASTEIGER

@<TRIPOS>ATOM
      1  N         64.2010   12.5130  -12.1210 N.3    29  LEU29      -0.1231
      2  CA        64.8110   12.3660  -10.8220 C.3    29  LEU29       0.1693
      3  C         66.0490   11.4850  -10.8160 C.2    29  LEU29       0.2592
      4  O         67.0910   11.9100  -10.3510 O.2    29  LEU29      -0.2718
      5  CB        63.7170   11.8440   -9.8850 C.3    29  LEU29       0.0284
      6  CG        63.9800   11.5000   -8.4310 C.3    29  LEU29       0.0019
      7  CD1       64.5020   12.7330   -7.6970 C.3    29  LEU29       0.0001
      8  CD2       62.6490   11.0260   -7.8110 C.3    29  LEU29       0.0001
      9  N         65.9570   10.2720  -11.3560 N.am   30  THR30      -0.1953
     10  CA        67.0860    9.3550  -11.3320 C.3    30  THR30       0.1897
     11  C         66.8200    8.1690  -12.2590 C.2    30  THR30       0.2313
     12  O         65.8650    8.2070  -13.0550 O.2    30  THR30      -0.2863
     13  CB        67.3140    8.8140   -9.8770 C.3    30  THR30       0.1794
     14  OG1       68.4560    7.9530   -9.8640 O.3    30  THR30      -0.2208
     15  CG2       66.0720    8.0110   -9.4130 C.3    30  THR30       0.0378
     16  N         57.7010   11.8400    2.6720 N.3    99  ILE99      -0.1231
     17  CA        57.4120   12.2170    1.2670 C.3    99  ILE99       0.1692
     18  C         58.6230   11.7720    0.4550 C.2    99  ILE99       0.2592
     19  O         59.7740   12.0270    0.8430 O.2    99  ILE99      -0.2718
     20  CB        57.1910   13.7700    1.1440 C.3    99  ILE99       0.0266
     21  CG1       55.7680   14.1120    1.6080 C.3    99  ILE99       0.0019
     22  CG2       57.4340   14.2420   -0.3270 C.3    99  ILE99       0.0020
     23  CD1       55.4540   15.6680    1.7430 C.3    99  ILE99       0.0001
     24  N         58.3670   11.1230   -0.6760 N.am  100  GLU100     -0.1966
     25  CA        59.4020   10.5700   -1.4840 C.3   100  GLU100      0.1733
     26  C         59.1470   10.7270   -2.9740 C.2   100  GLU100      0.2616
     27  O         58.0090   10.8220   -3.3880 O.2   100  GLU100     -0.2715
     28  CB        59.4440    9.0530   -1.2500 C.3   100  GLU100      0.0429
     29  CG        59.9810    8.5590    0.1460 C.3   100  GLU100      0.1163
     30  CD        61.4580    8.8130    0.3440 C.2   100  GLU100      0.3649
     31  OE1       62.2200    8.7650   -0.6490 O.co2 100  GLU100     -0.2457
     32  OE2       61.8930    9.0540    1.5190 O.co2 100  GLU100     -0.2457
     33  N         60.2260   10.6940   -3.7380 N.am  101  ASP101     -0.1957
     34  CA        60.1510   10.5970   -5.1780 C.3   101  ASP101      0.1840
     35  C         59.2970   11.6360   -5.8790 C.2   101  ASP101      0.2621
     36  O         58.4130   11.3170   -6.7040 O.2   101  ASP101     -0.2715
     37  CB        59.6910    9.1760   -5.5490 C.3   101  ASP101      0.1450
     38  CG        60.6050    8.0890   -4.9580 C.2   101  ASP101      0.3671
     39  OD1       61.7820    8.3830   -4.7240 O.co2 101  ASP101     -0.2456
     40  OD2       60.1700    6.9430   -4.7680 O.co2 101  ASP101     -0.2456
     41  N         59.6230   12.8770   -5.5670 N.am  102  ILE102     -0.1977
     42  CA        58.9560   14.0570   -6.1500 C.3   102  ILE102      0.1596
     43  C         59.6160   14.2910   -7.4990 C.2   102  ILE102      0.2287
     44  O         60.8330   14.5080   -7.5580 O.2   102  ILE102     -0.2864
     45  CB        59.2020   15.2910   -5.2540 C.3   102  ILE102      0.0276
     46  CG1       58.5550   15.0810   -3.8720 C.3   102  ILE102      0.0022
     47  CG2       58.6170   16.5570   -5.9280 C.3   102  ILE102      0.0022
     48  CD1       57.0510   14.7430   -3.9100 C.3   102  ILE102      0.0001
     49  N         60.9390   14.8230    4.6470 N.3   135  LEU135     -0.1231
     50  CA        61.4970   14.5090    3.3480 C.3   135  LEU135      0.1693
     51  C         62.9490   14.9260    3.3310 C.2   135  LEU135      0.2592
     52  O         63.4140   15.6770    4.2170 O.2   135  LEU135     -0.2718
     53  CB        60.6980   15.2270    2.2250 C.3   135  LEU135      0.0284
     54  CG        60.6340   16.7730    2.2770 C.3   135  LEU135      0.0019
     55  CD1       61.8730   17.4280    1.5930 C.3   135  LEU135      0.0001
     56  CD2       59.3670   17.2220    1.5210 C.3   135  LEU135      0.0001
     57  N         63.6920   14.4350    2.3500 N.am  136  ASP136     -0.1960
     58  CA        65.0810   14.7970    2.2060 C.3   136  ASP136      0.1840
     59  C         65.2610   15.5350    0.8590 C.2   136  ASP136      0.2622
     60  O         64.7220   15.1130   -0.1530 O.2   136  ASP136     -0.2715
     61  CB        65.9710   13.5400    2.2130 C.3   136  ASP136      0.1450
     62  CG        65.8780   12.7950    3.5280 C.2   136  ASP136      0.3671
     63  OD1       66.1740   13.4220    4.5680 O.co2 136  ASP136     -0.2456
     64  OD2       65.4780   11.6190    3.5390 O.co2 136  ASP136     -0.2456
     65  N         66.0380   16.5990    0.8390 N.am  137  CYS137     -0.1968
     66  CA        66.2210   17.3230   -0.4290 C.3   137  CYS137      0.1712
     67  C         67.6380   17.8230   -0.6110 C.2   137  CYS137      0.2296
     68  O         68.4190   17.8790    0.3480 O.2   137  CYS137     -0.2864
     69  CB        65.2680   18.5480   -0.4740 C.3   137  CYS137      0.0983
     70  SG        65.6330   19.8590    0.7260 S.3   137  CYS137     -0.0798
     71  N         61.2890   24.1550   -0.3740 N.3   145  TYR145     -0.1241
     72  CA        60.5550   23.4480    0.6580 C.3   145  TYR145      0.1605
     73  C         60.1400   24.3570    1.7880 C.2   145  TYR145      0.2264
     74  O         59.0830   24.1540    2.3800 O.2   145  TYR145     -0.2867
     75  CB        61.3760   22.2430    1.1460 C.3   145  TYR145      0.0534
     76  CG        61.2220   21.1190    0.1560 C.ar  145  TYR145     -0.0201
     77  CD1       62.2550   20.7580   -0.6930 C.ar  145  TYR145     -0.0009
     78  CD2       60.0000   20.4790    0.0220 C.ar  145  TYR145     -0.0009
     79  CE1       62.0730   19.7690   -1.6590 C.ar  145  TYR145      0.0417
     80  CE2       59.8080   19.5170   -0.9370 C.ar  145  TYR145      0.0417
     81  CZ        60.8490   19.1580   -1.7780 C.ar  145  TYR145      0.1957
     82  OH        60.6390   18.1850   -2.7580 O.3   145  TYR145     -0.2866
     83  N         70.4270   14.3890    6.0160 N.3   156  GLU156     -0.1245
     84  CA        70.2040   13.0660    5.4410 C.3   156  GLU156      0.1567
     85  C         71.5670   12.3910    5.2030 C.2   156  GLU156      0.2260
     86  O         72.4520   12.9630    4.5620 O.2   156  GLU156     -0.2867
     87  CB        69.4870   13.1280    4.0870 C.3   156  GLU156      0.0388
     88  CG        69.1620   11.7130    3.5510 C.3   156  GLU156      0.1160
     89  CD        68.9240   11.6810    2.0510 C.2   156  GLU156      0.3649
     90  OE1       69.1940   12.6810    1.3670 O.co2 156  GLU156     -0.2457
     91  OE2       68.4790   10.6320    1.5520 O.co2 156  GLU156     -0.2457
     92  N         75.1720    3.2940    0.0380 N.3   160  ARG160     -0.1245
     93  CA        74.6680    2.6680   -1.1780 C.3   160  ARG160      0.1563
     94  C         75.1840    1.2640   -1.3970 C.2   160  ARG160      0.2260
     95  O         76.3670    0.9430   -1.1200 O.2   160  ARG160     -0.2867
     96  CB        75.0680    3.5250   -2.4040 C.3   160  ARG160      0.0307
     97  CG        74.4660    4.8940   -2.3510 C.3   160  ARG160      0.0489
     98  CD        73.2630    4.8800   -3.2420 C.3   160  ARG160      0.2205
     99  NE        72.5970    6.1610   -3.1800 N.pl3 160  ARG160     -0.0865
    100  CZ        71.8380    6.6610   -4.1400 C.cat 160  ARG160      0.5346
    101  NH1       71.6460    5.9800   -5.2820 N.pl3 160  ARG160      0.1354
    102  NH2       71.2650    7.8400   -3.9180 N.pl3 160  ARG160      0.1354
@<TRIPOS>BOND
     1    12    11    2
     2    11    10    1
     3     1     2    1
     4     9    10    1
     5     9     3   am
     6    10    13    1
     7     2     3    1
     8     2     5    1
     9     3     4    2
    10     5     6    1
    11    13    14    1
    12    13    15    1
    13     6     8    1
    14     6     7    1
    15    44    43    2
    16    43    42    1
    17    36    35    2
    18    42    41    1
    19    42    45    1
    20    47    45    1
    21    35    41   am
    22    35    34    1
    23    37    34    1
    24    37    38    1
    25   101   100    1
    26    45    46    1
    27    34    33    1
    28    38    40   ar
    29    38    39   ar
    30   100   102    1
    31   100    99    2
    32    48    46    1
    33    33    26   am
    34    27    26    2
    35    98    99    1
    36    98    97    1
    37    26    25    1
    38    82    81    1
    39    96    97    1
    40    96    93    1
    41    81    79   ar
    42    81    80   ar
    43    79    77   ar
    44    25    28    1
    45    25    24    1
    46    94    93    1
    47    94    95    2
    48    28    29    1
    49    93    92    1
    50    80    78   ar
    51    77    76   ar
    52    24    18   am
    53    31    30   ar
    54    67    66    1
    55    67    68    2
    56    69    66    1
    57    69    70    1
    58    66    65    1
    59    71    72    1
    60    22    20    1
    61    60    59    2
    62    78    76   ar
    63    29    30    1
    64    76    75    1
    65    30    32   ar
    66    18    19    2
    67    18    17    1
    68    72    75    1
    69    72    73    1
    70    65    59   am
    71    59    58    1
    72    20    17    1
    73    20    21    1
    74    17    16    1
    75    90    89   ar
    76    56    54    1
    77    91    89   ar
    78    55    54    1
    79    21    23    1
    80    73    74    2
    81    89    88    1
    82    58    61    1
    83    58    57    1
    84    61    62    1
    85    53    54    1
    86    53    50    1
    87    57    51   am
    88    51    50    1
    89    51    52    2
    90    50    49    1
    91    62    64   ar
    92    62    63   ar
    93    88    87    1
    94    87    84    1
    95    86    85    2
    96    85    84    1
    97    84    83    1
