@<TRIPOS>MOLECULE
tmp/1i1dB01.pdb
 146 141 0 0 0
SMALL
GASTEIGER

@<TRIPOS>ATOM
      1  N         71.6590   18.8340   30.5120 N.3    24  VAL24      -0.1231
      2  CA        72.1160   17.7330   29.6500 C.3    24  VAL24       0.1692
      3  C         73.0130   16.7990   30.4570 C.2    24  VAL24       0.2591
      4  O         73.1960   15.6260   30.1210 O.2    24  VAL24      -0.2718
      5  CB        72.9440   18.2150   28.4230 C.3    24  VAL24       0.0266
      6  CG1       72.1220   19.1510   27.5740 C.3    24  VAL24       0.0020
      7  CG2       74.2510   18.8860   28.9000 C.3    24  VAL24       0.0020
      8  N         73.5680   17.2980   31.5550 N.am   25  LEU25      -0.1980
      9  CA        74.5150   16.4870   32.3270 C.3    25  LEU25       0.1596
     10  C         73.7920   15.6670   33.4050 C.2    25  LEU25       0.2287
     11  O         73.9740   14.4460   33.5190 O.2    25  LEU25      -0.2864
     12  CB        75.5880   17.4280   32.9620 C.3    25  LEU25       0.0297
     13  CG        76.4680   16.8650   34.1050 C.3    25  LEU25       0.0022
     14  CD1       77.3550   15.8250   33.5000 C.3    25  LEU25       0.0001
     15  CD2       77.3230   17.9700   34.7950 C.3    25  LEU25       0.0001
     16  N         80.6790   19.9250   33.6000 N.3    95  ILE95      -0.1231
     17  CA        80.8370   20.2870   32.2310 C.3    95  ILE95       0.1692
     18  C         79.5600   19.9790   31.4840 C.2    95  ILE95       0.2592
     19  O         79.0310   18.8590   31.5550 O.2    95  ILE95      -0.2718
     20  CB        81.9620   19.4470   31.5340 C.3    95  ILE95       0.0266
     21  CG1       83.3000   19.6230   32.2500 C.3    95  ILE95       0.0019
     22  CG2       82.0050   19.8220   30.0660 C.3    95  ILE95       0.0020
     23  CD1       83.7780   21.0890   32.2870 C.3    95  ILE95       0.0001
     24  N         79.0740   20.9520   30.7150 N.am   96  ALA96      -0.1966
     25  CA        77.8990   20.6840   29.9340 C.3    96  ALA96       0.1728
     26  C         77.8920   21.6360   28.7540 C.2    96  ALA96       0.2616
     27  O         78.2090   22.8250   28.9140 O.2    96  ALA96      -0.2715
     28  CB        76.6350   20.9340   30.7420 C.3    96  ALA96       0.0334
     29  N         77.5440   21.0950   27.5910 N.am   97  VAL97      -0.1977
     30  CA        77.3770   21.9310   26.3930 C.3    97  VAL97       0.1596
     31  C         75.8970   21.8400   26.1070 C.2    97  VAL97       0.2287
     32  O         75.3210   20.7560   25.9980 O.2    97  VAL97      -0.2864
     33  CB        78.2140   21.4210   25.1900 C.3    97  VAL97       0.0276
     34  CG1       77.9340   22.3040   23.9290 C.3    97  VAL97       0.0022
     35  CG2       79.6990   21.4980   25.5210 C.3    97  VAL97       0.0022
     36  N         72.4520   21.4160   24.5590 N.3    99  SER99      -0.1217
     37  CA        72.1770   20.4470   23.5010 C.3    99  SER99       0.1889
     38  C         72.2040   20.9760   22.0820 C.2    99  SER99       0.2288
     39  O         72.6930   20.3220   21.1850 O.2    99  SER99      -0.2866
     40  CB        70.8380   19.7510   23.7590 C.3    99  SER99       0.2089
     41  OG        69.8200   20.6970   23.6350 O.3    99  SER99      -0.2183
     42  N         76.0090   21.2770   20.7990 N.3   102  GLN102     -0.1231
     43  CA        76.9660   20.1710   20.8400 C.3   102  GLN102      0.1698
     44  C         77.5530   19.7990   19.4750 C.2   102  GLN102      0.2593
     45  O         76.9640   20.0950   18.4380 O.2   102  GLN102     -0.2718
     46  CB        76.2790   18.9540   21.4600 C.3   102  GLN102      0.0381
     47  CG        76.0930   19.1450   23.0070 C.3   102  GLN102      0.0905
     48  CD        75.1590   18.1170   23.5980 C.2   102  GLN102      0.2608
     49  OE1       74.7970   18.1660   24.7830 O.2   102  GLN102     -0.2717
     50  NE2       74.7410   17.1880   22.7670 N.am  102  GLN102     -0.0878
     51  N         78.7240   19.1770   19.4850 N.am  103  GLY103     -0.1942
     52  CA        79.3490   18.7340   18.2410 C.3   103  GLY103      0.2014
     53  C         79.9160   19.8110   17.3230 C.2   103  GLY103      0.2639
     54  O         80.0900   19.5350   16.1420 O.2   103  GLY103     -0.2714
     55  N         80.2120   21.0030   17.8550 N.am  104  GLN104     -0.1963
     56  CA        80.7760   22.0980   17.0600 C.3   104  GLN104      0.1733
     57  C         82.1280   22.5540   17.6060 C.2   104  GLN104      0.2617
     58  O         82.5880   23.6440   17.2650 O.2   104  GLN104     -0.2715
     59  CB        79.8700   23.3450   17.1000 C.3   104  GLN104      0.0408
     60  CG        78.4330   23.0900   16.9850 C.3   104  GLN104      0.0908
     61  CD        77.6010   24.3700   17.1170 C.2   104  GLN104      0.2608
     62  OE1       76.3710   24.3150   17.0870 O.2   104  GLN104     -0.2717
     63  NE2       78.2680   25.5200   17.2590 N.am  104  GLN104     -0.0878
     64  N         82.7460   21.7570   18.4820 N.am  105  GLY105     -0.1940
     65  CA        84.0380   22.1140   19.0320 C.3   105  GLY105      0.2014
     66  C         84.0070   22.9820   20.2860 C.2   105  GLY105      0.2639
     67  O         85.0700   23.2710   20.8360 O.2   105  GLY105     -0.2714
     68  N         82.8310   23.3690   20.7630 N.am  106  LEU106     -0.1963
     69  CA        82.7680   24.2350   21.9560 C.3   106  LEU106      0.1728
     70  C         83.1940   23.5190   23.2360 C.2   106  LEU106      0.2617
     71  O         83.8120   24.1300   24.1230 O.2   106  LEU106     -0.2715
     72  CB        81.3520   24.7990   22.1370 C.3   106  LEU106      0.0311
     73  CG        80.9170   25.7090   20.9490 C.3   106  LEU106      0.0022
     74  CD1       79.4410   26.0840   21.1430 C.3   106  LEU106      0.0001
     75  CD2       81.7870   26.9740   20.8590 C.3   106  LEU106      0.0001
     76  N         82.8690   22.2340   23.3480 N.am  107  GLY107     -0.1940
     77  CA        83.2990   21.4980   24.5470 C.3   107  GLY107      0.2014
     78  C         84.8180   21.4850   24.6560 C.2   107  GLY107      0.2638
     79  O         85.3940   21.7070   25.7410 O.2   107  GLY107     -0.2714
     80  N         85.4970   21.1640   23.5590 N.am  108  LYS108     -0.1977
     81  CA        86.9660   21.1460   23.5950 C.3   108  LYS108      0.1596
     82  C         87.5410   22.5240   23.9110 C.2   108  LYS108      0.2287
     83  O         88.4800   22.6730   24.6880 O.2   108  LYS108     -0.2864
     84  CB        87.5100   20.6150   22.2540 C.3   108  LYS108      0.0298
     85  CG        89.0430   20.5830   22.1980 C.3   108  LYS108      0.0038
     86  CD        89.5530   19.8770   20.9380 C.3   108  LYS108      0.0206
     87  CE        91.0800   19.9300   20.8890 C.3   108  LYS108      0.1093
     88  NZ        91.6390   21.3400   21.0210 N.3   108  LYS108     -0.1314
     89  N         80.7910    7.1060   28.3640 N.3   133  LYS133     -0.1231
     90  CA        80.3940    7.6560   27.1000 C.3   133  LYS133      0.1693
     91  C         81.2370    8.8220   26.6260 C.2   133  LYS133      0.2592
     92  O         81.3850    9.0250   25.4140 O.2   133  LYS133     -0.2718
     93  CB        78.9040    8.0470   27.1580 C.3   133  LYS133      0.0285
     94  CG        78.5940    9.3680   27.8790 C.3   133  LYS133      0.0035
     95  CD        77.0840    9.4840   28.1880 C.3   133  LYS133      0.0206
     96  CE        76.7300   10.9130   28.6230 C.3   133  LYS133      0.1093
     97  NZ        75.3920   10.9730   29.2420 N.3   133  LYS133     -0.1314
     98  N         81.8270    9.5620   27.5750 N.am  134  ASN134     -0.1974
     99  CA        82.6180   10.7200   27.2360 C.3   134  ASN134      0.1688
    100  C         84.1320   10.5560   27.2670 C.2   134  ASN134      0.2292
    101  O         84.8510   11.4990   27.0210 O.2   134  ASN134     -0.2864
    102  CB        82.1990   11.8780   28.1600 C.3   134  ASN134      0.1181
    103  CG        80.7790   12.3480   27.8860 C.2   134  ASN134      0.2629
    104  OD1       80.3620   12.4070   26.7440 O.2   134  ASN134     -0.2716
    105  ND2       80.0500   12.6820   28.9300 N.am  134  ASN134     -0.0877
    106  N         86.3130    9.2940   25.1680 N.3   136  LYS136     -0.1231
    107  CA        87.0040    9.6600   23.9300 C.3   136  LYS136      0.1693
    108  C         87.0140   11.1760   23.6940 C.2   136  LYS136      0.2592
    109  O         87.9030   11.6800   23.0580 O.2   136  LYS136     -0.2718
    110  CB        86.3410    8.9330   22.7420 C.3   136  LYS136      0.0285
    111  CG        86.6820    7.4480   22.7380 C.3   136  LYS136      0.0035
    112  CD        85.8860    6.6710   21.6880 C.3   136  LYS136      0.0206
    113  CE        86.3280    5.1630   21.7740 C.3   136  LYS136      0.1093
    114  NZ        85.5880    4.2970   20.7730 N.3   136  LYS136     -0.1314
    115  N         85.9840   11.8660   24.1540 N.am  137  PHE137     -0.1962
    116  CA        85.9380   13.3140   24.0490 C.3   137  PHE137      0.1771
    117  C         87.0840   13.8400   24.9150 C.2   137  PHE137      0.2619
    118  O         87.8850   14.6660   24.4620 O.2   137  PHE137     -0.2715
    119  CB        84.6030   13.8610   24.5740 C.3   137  PHE137      0.0574
    120  CG        84.6340   15.3460   24.8720 C.ar  137  PHE137     -0.0200
    121  CD1       84.7600   16.2730   23.8370 C.ar  137  PHE137     -0.0042
    122  CD2       84.6170   15.8110   26.1820 C.ar  137  PHE137     -0.0042
    123  CE1       84.8770   17.6470   24.1100 C.ar  137  PHE137     -0.0003
    124  CE2       84.7420   17.1890   26.4740 C.ar  137  PHE137     -0.0003
    125  CZ        84.8730   18.0910   25.4450 C.ar  137  PHE137     -0.0000
    126  N         87.1810   13.3920   26.1740 N.am  138  TYR138     -0.1974
    127  CA        88.2940   13.9200   26.9820 C.3   138  TYR138      0.1639
    128  C         89.6660   13.5170   26.4340 C.2   138  TYR138      0.2290
    129  O         90.6260   14.2690   26.5940 O.2   138  TYR138     -0.2864
    130  CB        88.1120   13.5130   28.4590 C.3   138  TYR138      0.0560
    131  CG        86.9470   14.3310   29.0430 C.ar  138  TYR138     -0.0198
    132  CD1       85.6990   13.7610   29.2790 C.ar  138  TYR138     -0.0009
    133  CD2       87.1150   15.7120   29.2910 C.ar  138  TYR138     -0.0009
    134  CE1       84.6420   14.5150   29.7370 C.ar  138  TYR138      0.0417
    135  CE2       86.0680   16.4820   29.7370 C.ar  138  TYR138      0.0417
    136  CZ        84.8400   15.8880   29.9550 C.ar  138  TYR138      0.1957
    137  OH        83.7680   16.6560   30.3450 O.3   138  TYR138     -0.2866
    138  N         90.3610   13.3990   23.3280 N.3   140  LYS140     -0.1245
    139  CA        90.6000   14.4030   22.2640 C.3   140  LYS140      0.1561
    140  C         91.0200   15.7610   22.8630 C.2   140  LYS140      0.2260
    141  O         91.5630   16.6220   22.1380 O.2   140  LYS140     -0.2867
    142  CB        89.3610   14.6170   21.3860 C.3   140  LYS140      0.0271
    143  CG        89.0930   13.5210   20.3050 C.3   140  LYS140      0.0035
    144  CD        89.9440   13.7300   19.0610 C.3   140  LYS140      0.0206
    145  CE        89.8730   12.5230   18.0750 C.3   140  LYS140      0.1093
    146  NZ        88.6470   12.4760   17.2200 N.3   140  LYS140     -0.1314
@<TRIPOS>BOND
     1    54    53    2
     2    60    59    1
     3    60    61    1
     4    56    59    1
     5    56    57    1
     6    56    55    1
     7    62    61    2
     8    61    63   am
     9   146   145    1
    10    58    57    2
    11    53    55   am
    12    53    52    1
    13    57    64   am
    14   145   144    1
    15    52    51    1
    16    45    44    2
    17    64    65    1
    18    65    66    1
    19   144   143    1
    20    44    51   am
    21    44    43    1
    22    66    68   am
    23    66    67    2
    24   143   142    1
    25    68    69    1
    26   114   113    1
    27    42    43    1
    28    43    46    1
    29    75    73    1
    30    87    86    1
    31    87    88    1
    32    86    85    1
    33    73    74    1
    34    73    72    1
    35    39    38    2
    36   142   139    1
    37    46    47    1
    38   112   113    1
    39   112   111    1
    40    69    72    1
    41    69    70    1
    42    38    37    1
    43   141   140    2
    44    85    84    1
    45    84    81    1
    46   139   140    1
    47   139   138    1
    48   111   110    1
    49   110   107    1
    50    50    48   am
    51    47    48    1
    52   109   108    2
    53    70    76   am
    54    70    71    2
    55    76    77    1
    56    37    40    1
    57    37    36    1
    58    80    81    1
    59    80    78   am
    60    81    82    1
    61    48    49    2
    62    41    40    1
    63   108   107    1
    64   108   115   am
    65   121   123   ar
    66   121   120   ar
    67    82    83    2
    68    34    33    1
    69   107   106    1
    70   116   115    1
    71   116   119    1
    72   116   117    1
    73   123   125   ar
    74   118   117    2
    75    77    78    1
    76   119   120    1
    77    78    79    2
    78   120   122   ar
    79   117   126   am
    80    33    35    1
    81    33    30    1
    82    92    91    2
    83   125   124   ar
    84    32    31    2
    85    31    30    1
    86   126   127    1
    87   122   124   ar
    88    30    29    1
    89   128   129    2
    90   128   127    1
    91    91    90    1
    92    91    98   am
    93   104   103    2
    94   127   130    1
    95   101   100    2
    96    90    93    1
    97    90    89    1
    98    93    94    1
    99    99   100    1
   100    99    98    1
   101    99   102    1
   102     6     5    1
   103    29    26   am
   104    94    95    1
   105   103   102    1
   106   103   105   am
   107    95    96    1
   108     5     7    1
   109     5     2    1
   110   130   131    1
   111    96    97    1
   112    26    27    2
   113    26    25    1
   114   131   132   ar
   115   131   133   ar
   116   132   134   ar
   117   133   135   ar
   118     2     3    1
   119     2     1    1
   120   135   136   ar
   121   134   136   ar
   122    25    24    1
   123    25    28    1
   124   136   137    1
   125    22    20    1
   126     4     3    2
   127     3     8   am
   128    24    18   am
   129    18    19    2
   130    18    17    1
   131    20    17    1
   132    20    21    1
   133     8     9    1
   134    17    16    1
   135    21    23    1
   136     9    12    1
   137     9    10    1
   138    12    13    1
   139    10    11    2
   140    14    13    1
   141    13    15    1
