@<TRIPOS>MOLECULE
tmp/1i1hA00.pdb
 158 148 0 0 0
SMALL
GASTEIGER

@<TRIPOS>ATOM
      1  N         66.2990   19.0830    9.6710 N.3     6  ILE6       -0.1245
      2  CA        66.8110   19.9120    8.5770 C.3     6  ILE6        0.1561
      3  C         66.1180   21.2780    8.5340 C.2     6  ILE6        0.2260
      4  O         64.8930   21.3720    8.5560 O.2     6  ILE6       -0.2867
      5  CB        66.6250   19.2020    7.1960 C.3     6  ILE6        0.0252
      6  CG1       67.1870   17.7730    7.2770 C.3     6  ILE6        0.0019
      7  CG2       67.3050   20.0030    6.0730 C.3     6  ILE6        0.0019
      8  CD1       67.3160   17.0510    5.9240 C.3     6  ILE6        0.0001
      9  N         65.2400   24.6780    3.3630 N.3     9  GLY9       -0.1210
     10  CA        64.1820   24.3910    2.4070 C.3     9  GLY9        0.1956
     11  C         64.5950   23.7230    1.0950 C.2     9  GLY9        0.2611
     12  O         63.9620   22.7320    0.6780 O.2     9  GLY9       -0.2717
     13  N         65.6310   24.2380    0.4290 N.am   10  ASN10      -0.1974
     14  CA        66.0420   23.6250   -0.8270 C.3    10  ASN10       0.1688
     15  C         66.5780   22.2430   -0.5340 C.2    10  ASN10       0.2292
     16  O         66.4250   21.3230   -1.3360 O.2    10  ASN10      -0.2864
     17  CB        67.0880   24.4790   -1.5360 C.3    10  ASN10       0.1181
     18  CG        66.5580   25.8590   -1.8950 C.2    10  ASN10       0.2629
     19  OD1       66.4250   26.2020   -3.0710 O.2    10  ASN10      -0.2716
     20  ND2       66.2460   26.6590   -0.8710 N.am   10  ASN10      -0.0877
     21  N         65.4760   20.4340    1.9020 N.3    12  ILE12      -0.1231
     22  CA        64.1960   19.7730    2.1010 C.3    12  ILE12       0.1692
     23  C         63.5660   19.4470    0.7590 C.2    12  ILE12       0.2592
     24  O         63.0830   18.3230    0.5410 O.2    12  ILE12      -0.2718
     25  CB        63.2240   20.6740    2.8570 C.3    12  ILE12       0.0266
     26  CG1       63.7800   21.0150    4.2480 C.3    12  ILE12       0.0019
     27  CG2       61.9250   19.9610    3.0180 C.3    12  ILE12       0.0020
     28  CD1       63.2580   22.3090    4.8110 C.3    12  ILE12       0.0001
     29  N         63.5670   20.4490   -0.1290 N.am   13  TYR13      -0.1976
     30  CA        63.0010   20.3240   -1.4760 C.3    13  TYR13       0.1639
     31  C         63.7050   19.2430   -2.2460 C.2    13  TYR13       0.2290
     32  O         63.0550   18.4170   -2.8860 O.2    13  TYR13      -0.2864
     33  CB        63.1080   21.6400   -2.2390 C.3    13  TYR13       0.0560
     34  CG        61.8460   22.4550   -2.1960 C.ar   13  TYR13      -0.0198
     35  CD1       61.8940   23.8390   -2.0410 C.ar   13  TYR13      -0.0009
     36  CD2       60.5960   21.8380   -2.2960 C.ar   13  TYR13      -0.0009
     37  CE1       60.7180   24.5960   -1.9790 C.ar   13  TYR13       0.0417
     38  CE2       59.4170   22.5740   -2.2390 C.ar   13  TYR13       0.0417
     39  CZ        59.4810   23.9550   -2.0780 C.ar   13  TYR13       0.1957
     40  OH        58.3160   24.6850   -2.0120 O.3    13  TYR13      -0.2866
     41  N         62.8170   15.8700   -0.7270 N.3    16  SER16      -0.1217
     42  CA        61.3590   15.6740   -0.8210 C.3    16  SER16       0.1889
     43  C         61.0460   15.0980   -2.1960 C.2    16  SER16       0.2288
     44  O         60.5150   13.9900   -2.3090 O.2    16  SER16      -0.2866
     45  CB        60.6100   17.0030   -0.6630 C.3    16  SER16       0.2089
     46  OG        59.2170   16.8400   -0.8940 O.3    16  SER16      -0.2183
     47  N         55.0710   17.0320   -8.2000 N.3    39  ARG39      -0.1245
     48  CA        54.7940   18.1290   -7.2740 C.3    39  ARG39       0.1563
     49  C         53.3980   17.9040   -6.7120 C.2    39  ARG39       0.2260
     50  O         53.1270   18.1920   -5.5380 O.2    39  ARG39      -0.2867
     51  CB        54.7410   19.4900   -7.9630 C.3    39  ARG39       0.0307
     52  CG        55.9080   19.9050   -8.7840 C.3    39  ARG39       0.0489
     53  CD        55.7150   21.3500   -9.1190 C.3    39  ARG39       0.2205
     54  NE        55.7850   22.1950   -7.9330 N.pl3  39  ARG39      -0.0865
     55  CZ        56.9220   22.5600   -7.3560 C.cat  39  ARG39       0.5346
     56  NH1       58.0880   22.1480   -7.8570 N.pl3  39  ARG39       0.1354
     57  NH2       56.8990   23.3530   -6.3010 N.pl3  39  ARG39       0.1354
     58  N         53.7460   15.8320   -4.3830 N.3    42  HIS42      -0.1226
     59  CA        54.4640   16.5500   -3.3400 C.3    42  HIS42       0.1752
     60  C         53.4570   17.2510   -2.5020 C.2    42  HIS42       0.2595
     61  O         53.2910   16.9190   -1.3550 O.2    42  HIS42      -0.2718
     62  CB        55.4560   17.5710   -3.9160 C.3    42  HIS42       0.0759
     63  CG        56.2020   18.3400   -2.8690 C.ar   42  HIS42       0.0818
     64  ND1       56.7870   17.7380   -1.7740 N.ar   42  HIS42      -0.2268
     65  CD2       56.4890   19.6590   -2.7680 C.ar   42  HIS42       0.1154
     66  CE1       57.4030   18.6520   -1.0490 C.ar   42  HIS42       0.1986
     67  NE2       57.2360   19.8250   -1.6280 N.ar   42  HIS42      -0.2212
     68  N         52.7590   18.2040   -3.1080 N.am   43  ALA43      -0.1980
     69  CA        51.7540   19.0030   -2.3980 C.3    43  ALA43       0.1597
     70  C         50.7690   18.2160   -1.5290 C.2    43  ALA43       0.2287
     71  O         50.2830   18.7470   -0.5060 O.2    43  ALA43      -0.2864
     72  CB        50.9730   19.8810   -3.3830 C.3    43  ALA43       0.0319
     73  N         51.3530   14.7000   -0.4400 N.3    45  GLY45      -0.1225
     74  CA        51.9450   13.7190    0.4370 C.3    45  GLY45       0.1811
     75  C         51.4550   12.3250    0.1360 C.2    45  GLY45       0.2280
     76  O         51.7480   11.3730    0.8630 O.2    45  GLY45      -0.2866
     77  N         42.3200   29.0870   -2.4310 N.3    79  MET79      -0.1245
     78  CA        43.3800   28.2690   -1.8630 C.3    79  MET79       0.1570
     79  C         44.3300   28.0380   -3.0260 C.2    79  MET79       0.2261
     80  O         45.5280   28.2760   -2.9180 O.2    79  MET79      -0.2867
     81  CB        42.8340   26.9230   -1.4390 C.3    79  MET79       0.0387
     82  CG        41.5910   26.9670   -0.6040 C.3    79  MET79       0.0595
     83  SD        42.0320   26.9670    1.1020 S.3    79  MET79      -0.1393
     84  CE        43.5060   25.9410    1.0220 C.3    79  MET79       0.0692
     85  N         48.2820   29.1410   -4.0160 N.3    83  GLY83      -0.1210
     86  CA        49.2400   28.0540   -4.0500 C.3    83  GLY83       0.1956
     87  C         50.1860   28.3080   -5.2000 C.2    83  GLY83       0.2612
     88  O         51.2580   27.7210   -5.3150 O.2    83  GLY83      -0.2717
     89  N         49.7960   29.2120   -6.0740 N.am   84  VAL84      -0.1965
     90  CA        50.6230   29.5180   -7.2160 C.3    84  VAL84       0.1727
     91  C         51.7690   30.3890   -6.7330 C.2    84  VAL84       0.2617
     92  O         51.5420   31.5000   -6.2660 O.2    84  VAL84      -0.2715
     93  CB        49.8230   30.2950   -8.2720 C.3    84  VAL84       0.0290
     94  CG1       50.6780   30.5160   -9.5130 C.3    84  VAL84       0.0023
     95  CG2       48.5320   29.5530   -8.5960 C.3    84  VAL84       0.0023
     96  N         52.9970   29.8830   -6.8170 N.am   85  THR85      -0.1937
     97  CA        54.1520   30.6740   -6.4190 C.3    85  THR85       0.2028
     98  C         54.4930   31.6560   -7.5030 C.2    85  THR85       0.2642
     99  O         55.1710   31.3080   -8.4740 O.2    85  THR85      -0.2714
    100  CB        55.3850   29.8270   -6.1720 C.3    85  THR85       0.1808
    101  OG1       55.2680   29.2490   -4.8910 O.3    85  THR85      -0.2208
    102  CG2       56.6170   30.6610   -6.1460 C.3    85  THR85       0.0379
    103  N         54.0240   32.8840   -7.3280 N.am   86  ARG86      -0.1963
    104  CA        54.2790   33.9400   -8.2910 C.3    86  ARG86       0.1729
    105  C         55.7410   33.8600   -8.7600 C.2    86  ARG86       0.2616
    106  O         56.0140   33.8530   -9.9640 O.2    86  ARG86      -0.2715
    107  CB        53.9840   35.3050   -7.6510 C.3    86  ARG86       0.0348
    108  CG        52.6070   35.4100   -6.9740 C.3    86  ARG86       0.0492
    109  CD        51.4380   35.4360   -7.9580 C.3    86  ARG86       0.2205
    110  NE        50.1570   35.4790   -7.2500 N.pl3  86  ARG86      -0.0865
    111  CZ        49.0020   35.8650   -7.7920 C.cat  86  ARG86       0.5346
    112  NH1       48.9540   36.2510   -9.0590 N.pl3  86  ARG86       0.1354
    113  NH2       47.8930   35.8780   -7.0620 N.pl3  86  ARG86       0.1354
    114  N         56.6620   33.7650   -7.8050 N.am   87  ALA87      -0.1963
    115  CA        58.1020   33.6660   -8.0830 C.3    87  ALA87       0.1728
    116  C         58.4700   32.6470   -9.1930 C.2    87  ALA87       0.2616
    117  O         59.5720   32.7160   -9.7840 O.2    87  ALA87      -0.2715
    118  CB        58.8440   33.3130   -6.7870 C.3    87  ALA87       0.0334
    119  N         57.5510   31.7230   -9.4900 N.am   88  ARG88      -0.1977
    120  CA        57.8060   30.7210  -10.5050 C.3    88  ARG88       0.1597
    121  C         57.0790   30.9050  -11.8540 C.2    88  ARG88       0.2287
    122  O         57.2960   30.1030  -12.7810 O.2    88  ARG88      -0.2864
    123  CB        57.4850   29.3560   -9.9310 C.3    88  ARG88       0.0334
    124  CG        58.0970   29.1620   -8.5720 C.3    88  ARG88       0.0492
    125  CD        57.6850   27.8450   -7.9020 C.3    88  ARG88       0.2205
    126  NE        58.3970   26.6950   -8.4500 N.pl3  88  ARG88      -0.0865
    127  CZ        58.0570   26.0690   -9.5680 C.cat  88  ARG88       0.5346
    128  NH1       57.0020   26.4730  -10.2660 N.pl3  88  ARG88       0.1354
    129  NH2       58.7820   25.0430   -9.9940 N.pl3  88  ARG88       0.1354
    130  N         43.0580   22.1380   -4.1140 N.3   194  SER194     -0.1202
    131  CA        43.7530   23.3790   -4.3460 C.3   194  SER194      0.2020
    132  C         45.2610   23.1140   -4.3720 C.2   194  SER194      0.2618
    133  O         45.9760   23.5880   -5.2760 O.2   194  SER194     -0.2717
    134  CB        43.3910   24.3060   -3.2200 C.3   194  SER194      0.2103
    135  OG        43.1260   23.5030   -2.0860 O.3   194  SER194     -0.2182
    136  N         45.7510   22.3590   -3.3870 N.am  195  ALA195     -0.1979
    137  CA        47.1730   22.0590   -3.3490 C.3   195  ALA195      0.1597
    138  C         47.6010   21.3800   -4.6610 C.2   195  ALA195      0.2287
    139  O         48.3920   21.9240   -5.4340 O.2   195  ALA195     -0.2864
    140  CB        47.5170   21.1920   -2.1330 C.3   195  ALA195      0.0319
    141  N         47.1740   23.7960   -7.5680 N.3   198  ALA198     -0.1231
    142  CA        48.1980   24.8100   -7.4950 C.3   198  ALA198      0.1694
    143  C         49.5570   24.1670   -7.7550 C.2   198  ALA198      0.2591
    144  O         50.3910   24.7090   -8.4880 O.2   198  ALA198     -0.2718
    145  CB        48.1660   25.4380   -6.1240 C.3   198  ALA198      0.0304
    146  N         49.7810   23.0100   -7.1410 N.am  199  ALA199     -0.1980
    147  CA        51.0270   22.2850   -7.3390 C.3   199  ALA199      0.1597
    148  C         51.1530   22.0280   -8.8260 C.2   199  ALA199      0.2287
    149  O         52.2150   22.2360   -9.4190 O.2   199  ALA199     -0.2864
    150  CB        51.0040   20.9730   -6.6060 C.3   199  ALA199      0.0319
    151  N         51.9420   25.1690  -10.4090 N.3   202  ASN202     -0.1240
    152  CA        53.3350   25.4540  -10.1490 C.3   202  ASN202      0.1653
    153  C         54.2910   24.6640  -11.0090 C.2   202  ASN202      0.2266
    154  O         55.3070   25.2020  -11.4520 O.2   202  ASN202     -0.2867
    155  CB        53.6490   25.2240   -8.6890 C.3   202  ASN202      0.1155
    156  CG        53.3090   26.4070   -7.8580 C.2   202  ASN202      0.2627
    157  OD1       52.9140   26.2660   -6.7210 O.2   202  ASN202     -0.2716
    158  ND2       53.4560   27.5980   -8.4300 N.am  202  ASN202     -0.0877
@<TRIPOS>BOND
     1   122   121    2
     2   121   120    1
     3   154   153    2
     4   153   152    1
     5   120   123    1
     6   120   119    1
     7   151   152    1
     8   128   127    1
     9   152   155    1
    10   129   127    1
    11   106   105    2
    12   123   124    1
    13   117   116    2
    14   127   126    2
    15    94    93    1
    16   119   116   am
    17   149   148    2
    18   116   115    1
    19    53    52    1
    20    53    54    1
    21   112   111    1
    22   148   147    1
    23    52    51    1
    24   105   104    1
    25   105   114   am
    26   155   156    1
    27    95    93    1
    28   124   125    1
    29   144   143    2
    30    99    98    2
    31   126   125    1
    32   158   156   am
    33   104   107    1
    34   104   103    1
    35    93    90    1
    36    47    48    1
    37   115   114    1
    38   115   118    1
    39    51    48    1
    40   109   110    1
    41   109   108    1
    42    54    55    2
    43   156   157    2
    44    56    55    1
    45   111   110    2
    46   111   113    1
    47   143   142    1
    48   143   146   am
    49   107   108    1
    50   141   142    1
    51    98   103   am
    52    98    97    1
    53   142   145    1
    54    55    57    1
    55   147   146    1
    56   147   150    1
    57    48    49    1
    58    90    91    1
    59    90    89    1
    60    96    91   am
    61    96    97    1
    62    91    92    2
    63    49    50    2
    64    97   100    1
    65   100   102    1
    66   100   101    1
    67    89    87   am
    68   139   138    2
    69    88    87    2
    70   133   132    2
    71    87    86    1
    72   138   137    1
    73    58    59    1
    74   132   131    1
    75   132   136   am
    76   131   130    1
    77   131   134    1
    78    86    85    1
    79    62    59    1
    80    62    63    1
    81   136   137    1
    82    72    69    1
    83   137   140    1
    84    59    60    1
    85   134   135    1
    86    68    60   am
    87    68    69    1
    88    19    18    2
    89    79    80    2
    90    79    78    1
    91    32    31    2
    92    63    65   ar
    93    63    64   ar
    94    65    67   ar
    95    60    61    2
    96    77    78    1
    97    69    70    1
    98    44    43    2
    99    36    38   ar
   100    36    34   ar
   101    31    30    1
   102    33    34    1
   103    33    30    1
   104    38    39   ar
   105    43    42    1
   106    34    35   ar
   107    39    40    1
   108    39    37   ar
   109    35    37   ar
   110    18    17    1
   111    18    20   am
   112    78    81    1
   113    64    66   ar
   114    67    66   ar
   115    17    14    1
   116    70    71    2
   117    30    29    1
   118    81    82    1
   119    16    15    2
   120    46    45    1
   121    14    15    1
   122    14    13    1
   123    42    41    1
   124    42    45    1
   125    82    83    1
   126    73    74    1
   127    29    23   am
   128    75    74    1
   129    75    76    2
   130    13    11   am
   131    24    23    2
   132    12    11    2
   133    23    22    1
   134    84    83    1
   135    11    10    1
   136    21    22    1
   137    22    25    1
   138    10     9    1
   139    25    27    1
   140    25    26    1
   141    26    28    1
   142     8     6    1
   143     7     5    1
   144     5     6    1
   145     5     2    1
   146     3     4    2
   147     3     2    1
   148     2     1    1
