@<TRIPOS>MOLECULE
tmp/1i1lC01.pdb
 121 116 0 0 0
SMALL
GASTEIGER

@<TRIPOS>ATOM
      1  N         66.9210   -3.9550    9.5890 N.3    33  PHE33      -0.1241
      2  CA        67.7250   -3.3350   10.6350 C.3    33  PHE33       0.1605
      3  C         66.9820   -3.0910   11.9400 C.2    33  PHE33       0.2264
      4  O         65.7800   -3.3060   12.0350 O.2    33  PHE33      -0.2867
      5  CB        68.2990   -2.0040   10.1270 C.3    33  PHE33       0.0534
      6  CG        67.2600   -0.9400    9.9070 C.ar   33  PHE33      -0.0203
      7  CD1       66.9960    0.0090   10.8940 C.ar   33  PHE33      -0.0042
      8  CD2       66.5350   -0.8910    8.7250 C.ar   33  PHE33      -0.0042
      9  CE1       66.0280    0.9900   10.7090 C.ar   33  PHE33      -0.0003
     10  CE2       65.5630    0.0860    8.5290 C.ar   33  PHE33      -0.0003
     11  CZ        65.3100    1.0280    9.5240 C.ar   33  PHE33      -0.0000
     12  N         67.1040   -0.5170   15.8230 N.3    35  GLY35      -0.1225
     13  CA        67.5420    0.7010   16.4650 C.3    35  GLY35       0.1811
     14  C         67.5580    0.3590   17.9380 C.2    35  GLY35       0.2280
     15  O         66.5200    0.0390   18.5130 O.2    35  GLY35      -0.2866
     16  N         63.5630   -9.2090   17.1990 N.3    56  ARG56      -0.1245
     17  CA        62.7900   -8.5610   16.1480 C.3    56  ARG56       0.1563
     18  C         63.5840   -8.5220   14.8420 C.2    56  ARG56       0.2260
     19  O         63.0030   -8.5660   13.7540 O.2    56  ARG56      -0.2867
     20  CB        62.3580   -7.1480   16.5630 C.3    56  ARG56       0.0307
     21  CG        61.4540   -6.4760   15.5370 C.3    56  ARG56       0.0489
     22  CD        60.7340   -5.2430   16.0770 C.3    56  ARG56       0.2205
     23  NE        61.6050   -4.0760   16.1840 N.pl3  56  ARG56      -0.0865
     24  CZ        61.1950   -2.8610   16.5380 C.cat  56  ARG56       0.5346
     25  NH1       59.9170   -2.6440   16.8310 N.pl3  56  ARG56       0.1354
     26  NH2       62.0630   -1.8590   16.5890 N.pl3  56  ARG56       0.1354
     27  N         73.8460    4.9090   20.3220 N.3    92  TYR92      -0.1241
     28  CA        72.7670    4.3970   19.5050 C.3    92  TYR92       0.1605
     29  C         73.4130    3.2640   18.7090 C.2    92  TYR92       0.2264
     30  O         74.4200    3.4690   18.0370 O.2    92  TYR92      -0.2867
     31  CB        72.2410    5.4740   18.5570 C.3    92  TYR92       0.0534
     32  CG        71.1520    4.9740   17.6330 C.ar   92  TYR92      -0.0201
     33  CD1       69.8220    4.9440   18.0430 C.ar   92  TYR92      -0.0009
     34  CD2       71.4530    4.5220   16.3520 C.ar   92  TYR92      -0.0009
     35  CE1       68.8200    4.4760   17.1960 C.ar   92  TYR92       0.0417
     36  CE2       70.4620    4.0540   15.4990 C.ar   92  TYR92       0.0417
     37  CZ        69.1500    4.0350   15.9220 C.ar   92  TYR92       0.1957
     38  OH        68.1680    3.5950   15.0680 O.3    92  TYR92      -0.2866
     39  N         73.2260    0.2260   15.8550 N.3    94  ARG94      -0.1245
     40  CA        72.5520   -0.0110   14.5980 C.3    94  ARG94       0.1563
     41  C         72.9050   -1.3290   13.9130 C.2    94  ARG94       0.2260
     42  O         73.8760   -1.4000   13.1620 O.2    94  ARG94      -0.2867
     43  CB        72.8260    1.1560   13.6450 C.3    94  ARG94       0.0307
     44  CG        72.3320    0.9500   12.2210 C.3    94  ARG94       0.0489
     45  CD        70.8360    0.6970   12.1840 C.3    94  ARG94       0.2205
     46  NE        70.2650    1.4260   11.0730 N.pl3  94  ARG94      -0.0865
     47  CZ        69.4430    2.4590   11.1890 C.cat  94  ARG94       0.5346
     48  NH1       69.0500    2.8870   12.3760 N.pl3  94  ARG94       0.1354
     49  NH2       69.1060    3.1380   10.1070 N.pl3  94  ARG94       0.1354
     50  N         74.2930    9.4570   19.7980 N.3   123  TRP123     -0.1241
     51  CA        73.2790   10.1720   19.0250 C.3   123  TRP123      0.1605
     52  C         72.3460   10.8930   19.9770 C.2   123  TRP123      0.2264
     53  O         71.8550   10.3060   20.9440 O.2   123  TRP123     -0.2867
     54  CB        72.4760    9.1970   18.1530 C.3   123  TRP123      0.0550
     55  CG        71.9050    9.8260   16.9090 C.ar  123  TRP123      0.0003
     56  CD1       72.2120   11.0600   16.3960 C.ar  123  TRP123      0.0946
     57  CD2       70.9380    9.2500   16.0110 C.ar  123  TRP123      0.0152
     58  NE1       71.4980   11.2810   15.2400 N.ar  123  TRP123     -0.2442
     59  CE2       70.7110   10.1900   14.9800 C.ar  123  TRP123      0.0810
     60  CE3       70.2430    8.0320   15.9790 C.ar  123  TRP123      0.0012
     61  CZ2       69.8190    9.9490   13.9290 C.ar  123  TRP123      0.0191
     62  CZ3       69.3530    7.7930   14.9340 C.ar  123  TRP123      0.0001
     63  CH2       69.1500    8.7480   13.9230 C.ar  123  TRP123      0.0015
     64  N         66.4310   12.6800   18.7840 N.3   126  TYR126     -0.1241
     65  CA        66.0080   12.5840   17.3850 C.3   126  TYR126      0.1605
     66  C         65.1800   13.7600   16.8890 C.2   126  TYR126      0.2264
     67  O         65.4200   14.2780   15.7940 O.2   126  TYR126     -0.2867
     68  CB        65.2350   11.2850   17.1480 C.3   126  TYR126      0.0534
     69  CG        64.8840   11.0380   15.6940 C.ar  126  TYR126     -0.0201
     70  CD1       65.8820   10.9630   14.7190 C.ar  126  TYR126     -0.0009
     71  CD2       63.5540   10.8870   15.2930 C.ar  126  TYR126     -0.0009
     72  CE1       65.5650   10.7450   13.3750 C.ar  126  TYR126      0.0417
     73  CE2       63.2260   10.6660   13.9490 C.ar  126  TYR126      0.0417
     74  CZ        64.2370   10.5950   12.9980 C.ar  126  TYR126      0.1957
     75  OH        63.9220   10.3580   11.6770 O.3   126  TYR126     -0.2866
     76  N         60.9360   -4.3200   10.0860 N.3   156  LYS156     -0.1245
     77  CA        61.6650   -3.0660   10.0070 C.3   156  LYS156      0.1561
     78  C         62.7310   -3.2610    8.9320 C.2   156  LYS156      0.2260
     79  O         63.8720   -3.6090    9.2180 O.2   156  LYS156     -0.2867
     80  CB        62.2810   -2.7490   11.3640 C.3   156  LYS156      0.0271
     81  CG        62.8200   -1.3520   11.4830 C.3   156  LYS156      0.0035
     82  CD        63.5390   -1.1970   12.8000 C.3   156  LYS156      0.0206
     83  CE        62.5710   -1.0450   13.9260 C.3   156  LYS156      0.1093
     84  NZ        62.0220    0.3360   13.9560 N.3   156  LYS156     -0.1314
     85  N         61.3550    2.6590    4.4860 N.3   161  TYR161     -0.1241
     86  CA        61.6160    4.0680    4.7150 C.3   161  TYR161      0.1605
     87  C         61.4860    5.0880    3.6010 C.2   161  TYR161      0.2264
     88  O         61.7530    6.2640    3.8170 O.2   161  TYR161     -0.2867
     89  CB        62.9030    4.2370    5.5330 C.3   161  TYR161      0.0534
     90  CG        62.7340    3.6350    6.9120 C.ar  161  TYR161     -0.0201
     91  CD1       62.6250    2.2580    7.0670 C.ar  161  TYR161     -0.0009
     92  CD2       62.5210    4.4410    8.0340 C.ar  161  TYR161     -0.0009
     93  CE1       62.2880    1.6930    8.2830 C.ar  161  TYR161      0.0417
     94  CE2       62.1810    3.8800    9.2700 C.ar  161  TYR161      0.0417
     95  CZ        62.0600    2.5020    9.3780 C.ar  161  TYR161      0.1957
     96  OH        61.6610    1.9110   10.5550 O.3   161  TYR161     -0.2866
     97  N         58.4950    8.0160   11.8120 N.3   193  GLY193     -0.1225
     98  CA        59.4310    7.0550   12.3630 C.3   193  GLY193      0.1811
     99  C         59.2250    6.8130   13.8400 C.2   193  GLY193      0.2280
    100  O         60.1830    6.5710   14.5720 O.2   193  GLY193     -0.2866
    101  N         59.6190    5.9810   20.3440 N.3   253  GLY253     -0.1210
    102  CA        60.5550    5.3120   19.4610 C.3   253  GLY253      0.1956
    103  C         61.8870    5.2050   20.1750 C.2   253  GLY253      0.2613
    104  O         62.0840    5.8550   21.1950 O.2   253  GLY253     -0.2717
    105  N         62.7890    4.3730   19.6720 N.am  254  THR254     -0.1938
    106  CA        64.0950    4.2130   20.2970 C.3   254  THR254      0.2028
    107  C         64.8990    5.5130   20.2190 C.2   254  THR254      0.2642
    108  O         65.4770    5.9500   21.2120 O.2   254  THR254     -0.2714
    109  CB        64.8870    3.0670   19.6440 C.3   254  THR254      0.1808
    110  OG1       64.1590    1.8450   19.8030 O.3   254  THR254     -0.2208
    111  CG2       66.2500    2.9110   20.2850 C.3   254  THR254      0.0379
    112  N         64.9050    6.1380   19.0450 N.am  255  ALA255     -0.1963
    113  CA        65.6330    7.3840   18.8390 C.3   255  ALA255      0.1728
    114  C         64.8620    8.5730   19.3860 C.2   255  ALA255      0.2616
    115  O         65.4500    9.4730   19.9690 O.2   255  ALA255     -0.2715
    116  CB        65.9300    7.5880   17.3620 C.3   255  ALA255      0.0334
    117  N         63.5440    8.5590   19.2130 N.am  256  ALA256     -0.1977
    118  CA        62.6880    9.6500   19.6700 C.3   256  ALA256      0.1597
    119  C         62.3160    9.5460   21.1450 C.2   256  ALA256      0.2287
    120  O         61.8580   10.5260   21.7420 O.2   256  ALA256     -0.2864
    121  CB        61.4230    9.7040   18.8210 C.3   256  ALA256      0.0319
@<TRIPOS>BOND
     1    87    88    2
     2    87    86    1
     3    85    86    1
     4    86    89    1
     5    89    90    1
     6    90    91   ar
     7    90    92   ar
     8    91    93   ar
     9    92    94   ar
    10    93    95   ar
    11    10     8   ar
    12    10    11   ar
    13     8     6   ar
    14    78    79    2
    15    78    77    1
    16    94    95   ar
    17    95    96    1
    18    11     9   ar
    19     1     2    1
    20     6     5    1
    21     6     7   ar
    22    77    76    1
    23    77    80    1
    24    49    47    1
    25     5     2    1
    26     2     3    1
    27     9     7   ar
    28    46    47    2
    29    46    45    1
    30    47    48    1
    31    80    81    1
    32    81    82    1
    33    75    74    1
    34    97    98    1
    35     3     4    2
    36    45    44    1
    37    44    43    1
    38    98    99    1
    39    82    83    1
    40    74    72   ar
    41    74    73   ar
    42    42    41    2
    43    72    70   ar
    44    43    40    1
    45    19    18    2
    46    99   100    2
    47    41    40    1
    48    63    61   ar
    49    63    62   ar
    50    83    84    1
    51    61    59   ar
    52    73    71   ar
    53    40    39    1
    54    70    69   ar
    55    18    17    1
    56    62    60   ar
    57    59    58   ar
    58    59    57   ar
    59    38    37    1
    60    58    56   ar
    61    71    69   ar
    62    36    37   ar
    63    36    34   ar
    64    21    22    1
    65    21    20    1
    66    69    68    1
    67    67    66    2
    68    12    13    1
    69    37    35   ar
    70    60    57   ar
    71    57    55   ar
    72    22    23    1
    73    17    20    1
    74    17    16    1
    75    23    24    2
    76    34    32   ar
    77    56    55   ar
    78    13    14    1
    79    24    26    1
    80    24    25    1
    81    66    65    1
    82    55    54    1
    83    68    65    1
    84    35    33   ar
    85   116   113    1
    86    65    64    1
    87    32    33   ar
    88    32    31    1
    89    14    15    2
    90    30    29    2
    91    54    51    1
    92    31    28    1
    93    29    28    1
    94   121   118    1
    95   113   112    1
    96   113   114    1
    97    51    50    1
    98    51    52    1
    99   112   107   am
   100   117   114   am
   101   117   118    1
   102   114   115    2
   103   102   103    1
   104   102   101    1
   105    28    27    1
   106   109   110    1
   107   109   111    1
   108   109   106    1
   109   118   119    1
   110   105   103   am
   111   105   106    1
   112    52    53    2
   113   103   104    2
   114   107   106    1
   115   107   108    2
   116   119   120    2
