@<TRIPOS>MOLECULE
tmp/1i1mA01.pdb
 110 106 0 0 0
SMALL
GASTEIGER

@<TRIPOS>ATOM
      1  N         26.0010   22.8070   15.0490 N.3    33  PHE33      -0.1241
      2  CA        24.8580   22.8970   15.9530 C.3    33  PHE33       0.1605
      3  C         24.8180   21.8150   17.0100 C.2    33  PHE33       0.2264
      4  O         25.5870   20.8520   16.9660 O.2    33  PHE33      -0.2867
      5  CB        23.5430   22.8670   15.1580 C.3    33  PHE33       0.0534
      6  CG        23.2270   21.5320   14.5450 C.ar   33  PHE33      -0.0203
      7  CD1       22.4220   20.6190   15.2150 C.ar   33  PHE33      -0.0042
      8  CD2       23.7230   21.1910   13.2940 C.ar   33  PHE33      -0.0042
      9  CE1       22.1150   19.3830   14.6520 C.ar   33  PHE33      -0.0003
     10  CE2       23.4220   19.9550   12.7170 C.ar   33  PHE33      -0.0003
     11  CZ        22.6150   19.0490   13.4000 C.ar   33  PHE33      -0.0000
     12  N         21.9360   19.6410   19.9130 N.3    35  GLY35      -0.1225
     13  CA        20.5860   19.2530   20.2370 C.3    35  GLY35       0.1811
     14  C         20.6390   18.9970   21.7260 C.2    35  GLY35       0.2280
     15  O         21.3680   18.1150   22.1770 O.2    35  GLY35      -0.2866
     16  N         13.1940   21.5590   23.7470 N.3    92  TYR92      -0.1241
     17  CA        14.3140   21.1190   22.9360 C.3    92  TYR92       0.1605
     18  C         15.0710   22.4070   22.6380 C.2    92  TYR92       0.2264
     19  O         14.4750   23.3880   22.1990 O.2    92  TYR92      -0.2867
     20  CB        13.8250   20.4740   21.6380 C.3    92  TYR92       0.0534
     21  CG        14.9480   20.0790   20.7130 C.ar   92  TYR92      -0.0201
     22  CD1       15.5880   18.8510   20.8470 C.ar   92  TYR92      -0.0009
     23  CD2       15.3990   20.9510   19.7260 C.ar   92  TYR92      -0.0009
     24  CE1       16.6520   18.5040   20.0210 C.ar   92  TYR92       0.0417
     25  CE2       16.4620   20.6130   18.9000 C.ar   92  TYR92       0.0417
     26  CZ        17.0800   19.3900   19.0540 C.ar   92  TYR92       0.1957
     27  OH        18.1210   19.0590   18.2320 O.3    92  TYR92      -0.2866
     28  N         18.2300   24.4130   20.7160 N.3    94  ARG94      -0.1245
     29  CA        19.0380   24.3290   19.5070 C.3    94  ARG94       0.1563
     30  C         20.0670   25.4510   19.3420 C.2    94  ARG94       0.2260
     31  O         19.7450   26.5460   18.8790 O.2    94  ARG94      -0.2867
     32  CB        18.1300   24.2780   18.2730 C.3    94  ARG94       0.0307
     33  CG        18.8240   24.6280   16.9530 C.3    94  ARG94       0.0489
     34  CD        19.7820   23.5500   16.4900 C.3    94  ARG94       0.2205
     35  NE        19.1500   22.6980   15.4920 N.pl3  94  ARG94      -0.0865
     36  CZ        19.0570   21.3810   15.5850 C.cat  94  ARG94       0.5346
     37  NH1       19.5610   20.7530   16.6280 N.pl3  94  ARG94       0.1354
     38  NH2       18.4260   20.6950   14.6520 N.pl3  94  ARG94       0.1354
     39  N          9.1060   20.0640   21.9630 N.3   123  TRP123     -0.1241
     40  CA         9.2480   19.1060   20.8710 C.3   123  TRP123      0.1605
     41  C          9.0630   17.6940   21.4090 C.2   123  TRP123      0.2264
     42  O          9.7450   17.2880   22.3560 O.2   123  TRP123     -0.2867
     43  CB        10.6220   19.2360   20.2110 C.3   123  TRP123      0.0550
     44  CG        10.6220   18.8560   18.7520 C.ar  123  TRP123      0.0003
     45  CD1        9.5360   18.7860   17.9260 C.ar  123  TRP123      0.0946
     46  CD2       11.7640   18.5530   17.9350 C.ar  123  TRP123      0.0152
     47  NE1        9.9280   18.4690   16.6490 N.ar  123  TRP123     -0.2442
     48  CE2       11.2890   18.3180   16.6220 C.ar  123  TRP123      0.0810
     49  CE3       13.1410   18.4580   18.1800 C.ar  123  TRP123      0.0012
     50  CZ2       12.1460   18.0010   15.5570 C.ar  123  TRP123      0.0191
     51  CZ3       13.9940   18.1420   17.1160 C.ar  123  TRP123      0.0001
     52  CH2       13.4910   17.9170   15.8250 C.ar  123  TRP123      0.0015
     53  N         10.9320   12.2680   18.6010 N.3   126  TYR126     -0.1241
     54  CA        11.3670   12.3810   17.2130 C.3   126  TYR126      0.1605
     55  C         10.7880   11.3090   16.2890 C.2   126  TYR126      0.2264
     56  O         10.2980   11.6180   15.1990 O.2   126  TYR126     -0.2867
     57  CB        12.9020   12.3770   17.1450 C.3   126  TYR126      0.0534
     58  CG        13.4610   12.7330   15.7810 C.ar  126  TYR126     -0.0201
     59  CD1       13.2290   13.9850   15.2150 C.ar  126  TYR126     -0.0009
     60  CD2       14.1920   11.8040   15.0440 C.ar  126  TYR126     -0.0009
     61  CE1       13.7080   14.3020   13.9480 C.ar  126  TYR126      0.0417
     62  CE2       14.6760   12.1110   13.7770 C.ar  126  TYR126      0.0417
     63  CZ        14.4300   13.3570   13.2340 C.ar  126  TYR126      0.1957
     64  OH        14.9020   13.6560   11.9750 O.3   126  TYR126     -0.2866
     65  N         29.5260   17.8590   14.6890 N.3   156  LYS156     -0.1245
     66  CA        28.0960   17.9460   14.4180 C.3   156  LYS156      0.1561
     67  C         27.8760   19.2160   13.6060 C.2   156  LYS156      0.2260
     68  O         27.4800   20.2430   14.1460 O.2   156  LYS156     -0.2867
     69  CB        27.3250   18.0030   15.7380 C.3   156  LYS156      0.0271
     70  CG        25.8720   17.5980   15.6440 C.3   156  LYS156      0.0035
     71  CD        25.2860   17.4550   17.0440 C.3   156  LYS156      0.0206
     72  CE        23.8700   16.9160   17.0100 C.3   156  LYS156      0.1093
     73  NZ        23.8790   15.5810   16.3980 N.3   156  LYS156     -0.1314
     74  N         24.3560   16.7750    7.3010 N.3   161  TYR161     -0.1241
     75  CA        22.9830   16.3340    7.1460 C.3   161  TYR161      0.1605
     76  C         22.3650   16.0500    5.7990 C.2   161  TYR161      0.2264
     77  O         21.2150   15.6220    5.7290 O.2   161  TYR161     -0.2867
     78  CB        22.0750   17.1820    8.0240 C.3   161  TYR161      0.0534
     79  CG        22.0960   16.6670    9.4340 C.ar  161  TYR161     -0.0201
     80  CD1       23.2120   16.8530   10.2530 C.ar  161  TYR161     -0.0009
     81  CD2       21.0410   15.9030    9.9160 C.ar  161  TYR161     -0.0009
     82  CE1       23.2700   16.2820   11.5110 C.ar  161  TYR161      0.0417
     83  CE2       21.0870   15.3310   11.1640 C.ar  161  TYR161      0.0417
     84  CZ        22.1960   15.5200   11.9560 C.ar  161  TYR161      0.1957
     85  OH        22.2080   14.9420   13.1980 O.3   161  TYR161     -0.2866
     86  N         20.0500    9.7870   12.2220 N.3   193  GLY193     -0.1225
     87  CA        20.3400   10.8270   13.1970 C.3   193  GLY193      0.1811
     88  C         20.3410   10.3150   14.6280 C.2   193  GLY193      0.2280
     89  O         20.0560   11.0640   15.5630 O.2   193  GLY193     -0.2866
     90  N         19.6670    9.1450   21.0170 N.3   253  GLY253     -0.1210
     91  CA        19.9190   10.4910   20.5360 C.3   253  GLY253      0.1956
     92  C         19.2140   11.4660   21.4500 C.2   253  GLY253      0.2613
     93  O         18.4120   11.0500   22.2780 O.2   253  GLY253     -0.2717
     94  N         19.5380   12.7520   21.3520 N.am  254  THR254     -0.1938
     95  CA        18.8770   13.7390   22.1990 C.3   254  THR254      0.2028
     96  C         17.3910   13.8240   21.8470 C.2   254  THR254      0.2642
     97  O         16.5350   13.6590   22.7200 O.2   254  THR254     -0.2714
     98  CB        19.5400   15.1260   22.1020 C.3   254  THR254      0.1808
     99  OG1       20.8780   15.0450   22.6070 O.3   254  THR254     -0.2208
    100  CG2       18.7650   16.1420   22.9250 C.3   254  THR254      0.0379
    101  N         17.0900   14.0210   20.5650 N.am  255  ALA255     -0.1963
    102  CA        15.7080   14.1050   20.0950 C.3   255  ALA255      0.1728
    103  C         14.9820   12.7580   20.1240 C.2   255  ALA255      0.2616
    104  O         13.7950   12.6960   20.4480 O.2   255  ALA255     -0.2715
    105  CB        15.6650   14.6810   18.6900 C.3   255  ALA255      0.0334
    106  N         15.6900   11.6870   19.7800 N.am  256  ALA256     -0.1977
    107  CA        15.1070   10.3500   19.7480 C.3   256  ALA256      0.1597
    108  C         15.0970    9.6490   21.1030 C.2   256  ALA256      0.2287
    109  O         14.3990    8.6500   21.2830 O.2   256  ALA256     -0.2864
    110  CB        15.8440    9.4910   18.7310 C.3   256  ALA256      0.0319
@<TRIPOS>BOND
     1    77    76    2
     2    76    75    1
     3    75    74    1
     4    75    78    1
     5    78    79    1
     6    79    81   ar
     7    79    80   ar
     8    81    83   ar
     9    80    82   ar
    10    83    84   ar
    11    82    84   ar
    12    84    85    1
    13    64    63    1
    14    86    87    1
    15    10     8   ar
    16    10    11   ar
    17    87    88    1
    18    63    62   ar
    19    63    61   ar
    20     8     6   ar
    21    11     9   ar
    22    67    68    2
    23    67    66    1
    24    62    60   ar
    25    61    59   ar
    26    66    65    1
    27    66    69    1
    28     6     5    1
    29     6     7   ar
    30    88    89    2
    31    38    36    1
    32     9     7   ar
    33    60    58   ar
    34     1     2    1
    35     5     2    1
    36    56    55    2
    37    59    58   ar
    38    35    36    2
    39    35    34    1
    40    50    52   ar
    41    50    48   ar
    42    36    37    1
    43    70    69    1
    44    70    71    1
    45    58    57    1
    46    52    51   ar
    47     2     3    1
    48    55    54    1
    49    73    72    1
    50    34    33    1
    51    48    47   ar
    52    48    46   ar
    53    47    45   ar
    54    33    32    1
    55     4     3    2
    56    72    71    1
    57    51    49   ar
    58    57    54    1
    59    54    53    1
    60    45    44   ar
    61    46    49   ar
    62    46    44   ar
    63    27    26    1
    64    32    29    1
    65   105   102    1
    66   110   107    1
    67    44    43    1
    68    31    30    2
    69    25    26   ar
    70    25    23   ar
    71    26    24   ar
    72    30    29    1
    73    29    28    1
    74    23    21   ar
    75   107   106    1
    76   107   108    1
    77   106   103   am
    78    12    13    1
    79    24    22   ar
    80   102   103    1
    81   102   101    1
    82   103   104    2
    83    43    40    1
    84    13    14    1
    85    91    90    1
    86    91    92    1
    87   101    96   am
    88    21    22   ar
    89    21    20    1
    90    40    41    1
    91    40    39    1
    92   108   109    2
    93    94    92   am
    94    94    95    1
    95    41    42    2
    96    92    93    2
    97    20    17    1
    98    14    15    2
    99    96    95    1
   100    96    97    2
   101    98    95    1
   102    98    99    1
   103    98   100    1
   104    19    18    2
   105    18    17    1
   106    17    16    1
