@<TRIPOS>MOLECULE
tmp/1i1mA00.pdb
 155 145 0 0 0
SMALL
GASTEIGER

@<TRIPOS>ATOM
      1  N         21.9360   19.6410   19.9130 N.3    35  GLY35      -0.1225
      2  CA        20.5860   19.2530   20.2370 C.3    35  GLY35       0.1811
      3  C         20.6390   18.9970   21.7260 C.2    35  GLY35       0.2280
      4  O         21.3680   18.1150   22.1770 O.2    35  GLY35      -0.2866
      5  N         27.2780   19.2010   25.9810 N.3    53  HIS53      -0.1241
      6  CA        26.7750   19.6190   24.6800 C.3    53  HIS53       0.1621
      7  C         27.4380   20.9150   24.2330 C.2    53  HIS53       0.2264
      8  O         27.8080   21.0520   23.0770 O.2    53  HIS53      -0.2867
      9  CB        25.2540   19.7750   24.7040 C.3    53  HIS53       0.0745
     10  CG        24.5110   18.4820   24.5520 C.ar   53  HIS53       0.0817
     11  ND1       23.9080   17.8400   25.6110 N.ar   53  HIS53      -0.2268
     12  CD2       24.2740   17.7130   23.4640 C.ar   53  HIS53       0.1154
     13  CE1       23.3360   16.7270   25.1850 C.ar   53  HIS53       0.1986
     14  NE2       23.5430   16.6280   23.8870 N.ar   53  HIS53      -0.2212
     15  N         30.9070   20.2200   23.1710 N.3    56  ARG56      -0.1245
     16  CA        30.9820   19.6320   21.8360 C.3    56  ARG56       0.1563
     17  C         30.7320   20.6700   20.7500 C.2    56  ARG56       0.2260
     18  O         31.1740   20.5070   19.6110 O.2    56  ARG56      -0.2867
     19  CB        30.0160   18.4600   21.6670 C.3    56  ARG56       0.0307
     20  CG        30.2120   17.7330   20.3260 C.3    56  ARG56       0.0489
     21  CD        29.4190   16.4430   20.2090 C.3    56  ARG56       0.2205
     22  NE        27.9830   16.6890   20.1500 N.pl3  56  ARG56      -0.0865
     23  CZ        27.0520   15.7550   20.3030 C.cat  56  ARG56       0.5346
     24  NH1       27.3980   14.4950   20.5220 N.pl3  56  ARG56       0.1354
     25  NH2       25.7740   16.0880   20.2460 N.pl3  56  ARG56       0.1354
     26  N         27.3260    6.1890    4.8700 N.3   145  ARG145     -0.1245
     27  CA        27.7700    7.3780    5.5830 C.3   145  ARG145      0.1563
     28  C         29.1950    7.7470    5.1910 C.2   145  ARG145      0.2260
     29  O         29.9560    6.9050    4.7190 O.2   145  ARG145     -0.2867
     30  CB        27.6190    7.2010    7.0960 C.3   145  ARG145      0.0307
     31  CG        26.2080    7.5190    7.5750 C.3   145  ARG145      0.0489
     32  CD        26.0010    7.3000    9.0650 C.3   145  ARG145      0.2205
     33  NE        26.8890    8.1010    9.9060 N.pl3 145  ARG145     -0.0865
     34  CZ        26.7180    9.3900   10.1890 C.cat 145  ARG145      0.5346
     35  NH1       25.6850   10.0590    9.7010 N.pl3 145  ARG145      0.1354
     36  NH2       27.5760   10.0090   10.9870 N.pl3 145  ARG145      0.1354
     37  N         29.5260   17.8590   14.6890 N.3   156  LYS156     -0.1245
     38  CA        28.0960   17.9460   14.4180 C.3   156  LYS156      0.1561
     39  C         27.8760   19.2160   13.6060 C.2   156  LYS156      0.2260
     40  O         27.4800   20.2430   14.1460 O.2   156  LYS156     -0.2867
     41  CB        27.3250   18.0030   15.7380 C.3   156  LYS156      0.0271
     42  CG        25.8720   17.5980   15.6440 C.3   156  LYS156      0.0035
     43  CD        25.2860   17.4550   17.0440 C.3   156  LYS156      0.0206
     44  CE        23.8700   16.9160   17.0100 C.3   156  LYS156      0.1093
     45  NZ        23.8790   15.5810   16.3980 N.3   156  LYS156     -0.1314
     46  N         26.7990   18.0660    7.0740 N.3   160  ASN160     -0.1225
     47  CA        26.7560   16.6150    7.2780 C.3   160  ASN160      0.1785
     48  C         25.3920   16.0240    6.9550 C.2   160  ASN160      0.2597
     49  O         25.2830   14.9270    6.4100 O.2   160  ASN160     -0.2718
     50  CB        27.0390   16.2720    8.7510 C.3   160  ASN160      0.1169
     51  CG        28.4590   16.5950    9.1850 C.2   160  ASN160      0.2627
     52  OD1       29.2760   17.0700    8.3990 O.2   160  ASN160     -0.2716
     53  ND2       28.7610   16.3130   10.4500 N.am  160  ASN160     -0.0877
     54  N         24.3560   16.7750    7.3010 N.am  161  TYR161     -0.1976
     55  CA        22.9830   16.3340    7.1460 C.3   161  TYR161      0.1639
     56  C         22.3650   16.0500    5.7990 C.2   161  TYR161      0.2290
     57  O         21.2150   15.6220    5.7290 O.2   161  TYR161     -0.2864
     58  CB        22.0750   17.1820    8.0240 C.3   161  TYR161      0.0560
     59  CG        22.0960   16.6670    9.4340 C.ar  161  TYR161     -0.0198
     60  CD1       23.2120   16.8530   10.2530 C.ar  161  TYR161     -0.0009
     61  CD2       21.0410   15.9030    9.9160 C.ar  161  TYR161     -0.0009
     62  CE1       23.2700   16.2820   11.5110 C.ar  161  TYR161      0.0417
     63  CE2       21.0870   15.3310   11.1640 C.ar  161  TYR161      0.0417
     64  CZ        22.1960   15.5200   11.9560 C.ar  161  TYR161      0.1957
     65  OH        22.2080   14.9420   13.1980 O.3   161  TYR161     -0.2866
     66  N         22.1120   12.3880    6.1610 N.3   164  SER164     -0.1217
     67  CA        21.0100   11.9450    7.0130 C.3   164  SER164      0.1889
     68  C         19.6650   12.0960    6.3000 C.2   164  SER164      0.2288
     69  O         18.7450   11.2980    6.5020 O.2   164  SER164     -0.2866
     70  CB        20.9940   12.7390    8.3180 C.3   164  SER164      0.2089
     71  OG        22.1550   12.4940    9.0880 O.3   164  SER164     -0.2183
     72  N         25.2660    3.8180   11.9420 N.3   190  GLU190     -0.1245
     73  CA        24.2440    4.3050   12.8620 C.3   190  GLU190      0.1567
     74  C         22.9990    4.6950   12.0730 C.2   190  GLU190      0.2260
     75  O         22.9810    4.6060   10.8440 O.2   190  GLU190     -0.2867
     76  CB        24.7500    5.5340   13.6130 C.3   190  GLU190      0.0388
     77  CG        25.1090    6.6970   12.7070 C.3   190  GLU190      0.1160
     78  CD        25.1820    8.0020   13.4530 C.2   190  GLU190      0.3649
     79  OE1       26.2240    8.6810   13.3610 O.co2 190  GLU190     -0.2457
     80  OE2       24.1910    8.3490   14.1300 O.co2 190  GLU190     -0.2457
     81  N         20.0200    7.4060   10.7230 N.3   192  ALA192     -0.1231
     82  CA        20.1820    8.6930   10.0520 C.3   192  ALA192      0.1694
     83  C         20.5530    9.8340   10.9930 C.2   192  ALA192      0.2593
     84  O         21.2800   10.7390   10.6060 O.2   192  ALA192     -0.2718
     85  CB        18.9230    9.0410    9.2690 C.3   192  ALA192      0.0304
     86  N         20.0500    9.7870   12.2220 N.am  193  GLY193     -0.1942
     87  CA        20.3400   10.8270   13.1970 C.3   193  GLY193      0.2014
     88  C         20.3410   10.3150   14.6280 C.2   193  GLY193      0.2639
     89  O         20.0560   11.0640   15.5630 O.2   193  GLY193     -0.2714
     90  N         20.6850    9.0420   14.8030 N.am  194  GLU194     -0.1963
     91  CA        20.7250    8.4350   16.1270 C.3   194  GLU194      0.1733
     92  C         21.6660    7.2320   16.1880 C.2   194  GLU194      0.2616
     93  O         21.7740    6.4800   15.2240 O.2   194  GLU194     -0.2715
     94  CB        19.3120    8.0380   16.5780 C.3   194  GLU194      0.0429
     95  CG        18.5090    7.1940   15.6020 C.3   194  GLU194      0.1163
     96  CD        17.8730    7.9980   14.4730 C.2   194  GLU194      0.3649
     97  OE1       18.2530    7.7810   13.3110 O.co2 194  GLU194     -0.2457
     98  OE2       16.9810    8.8290   14.7340 O.co2 194  GLU194     -0.2457
     99  N         22.3760    7.0720   17.3070 N.am  195  ASN195     -0.1972
    100  CA        23.3040    5.9500   17.4670 C.3   195  ASN195      0.1688
    101  C         22.5530    4.6340   17.5400 C.2   195  ASN195      0.2292
    102  O         21.3710    4.6030   17.8710 O.2   195  ASN195     -0.2864
    103  CB        24.2030    6.1230   18.6930 C.3   195  ASN195      0.1181
    104  CG        25.1670    7.2810   18.5470 C.2   195  ASN195      0.2629
    105  OD1       26.1410    7.2100   17.7980 O.2   195  ASN195     -0.2716
    106  ND2       24.8880    8.3640   19.2500 N.am  195  ASN195     -0.0877
    107  N         28.8250    9.3650   14.9820 N.3   214  LEU214     -0.1245
    108  CA        29.0680   10.5360   15.8120 C.3   214  LEU214      0.1561
    109  C         29.0880   10.1260   17.2840 C.2   214  LEU214      0.2260
    110  O         28.3150    9.2600   17.7030 O.2   214  LEU214     -0.2867
    111  CB        27.9770   11.5870   15.5730 C.3   214  LEU214      0.0270
    112  CG        28.1410   12.9210   16.3050 C.3   214  LEU214      0.0019
    113  CD1       28.1990   14.0690   15.3190 C.3   214  LEU214      0.0001
    114  CD2       26.9990   13.1160   17.2630 C.3   214  LEU214      0.0001
    115  N         27.8800   10.2170   20.2550 N.3   216  GLY216     -0.1210
    116  CA        26.6680   10.6370   20.9390 C.3   216  GLY216      0.1956
    117  C         26.7890   10.8000   22.4400 C.2   216  GLY216      0.2612
    118  O         27.4440   10.0070   23.1180 O.2   216  GLY216     -0.2717
    119  N         26.1690   11.8540   22.9550 N.am  217  ILE217     -0.1965
    120  CA        26.1810   12.1330   24.3830 C.3   217  ILE217      0.1727
    121  C         25.1740   11.2280   25.0840 C.2   217  ILE217      0.2617
    122  O         25.3720   10.8420   26.2360 O.2   217  ILE217     -0.2715
    123  CB        25.9340   13.6300   24.6450 C.3   217  ILE217      0.0290
    124  CG1       27.1870   14.4090   24.2370 C.3   217  ILE217      0.0022
    125  CG2       25.5850   13.8840   26.0910 C.3   217  ILE217      0.0023
    126  CD1       27.1000   15.8920   24.4090 C.3   217  ILE217      0.0001
    127  N         24.1170   10.8500   24.3700 N.am  218  THR218     -0.1937
    128  CA        23.1120    9.9460   24.9190 C.3   218  THR218      0.2028
    129  C         23.7450    8.5590   24.8980 C.2   218  THR218      0.2642
    130  O         23.5600    7.7600   25.8120 O.2   218  THR218     -0.2714
    131  CB        21.8440    9.9360   24.0680 C.3   218  THR218      0.1808
    132  OG1       21.4400   11.2830   23.8150 O.3   218  THR218     -0.2208
    133  CG2       20.7200    9.2130   24.7970 C.3   218  THR218      0.0379
    134  N         24.5090    8.2990   23.8440 N.am  219  ARG219     -0.1977
    135  CA        25.2210    7.0440   23.6660 C.3   219  ARG219      0.1597
    136  C         26.1720    6.8450   24.8410 C.2   219  ARG219      0.2287
    137  O         26.2250    5.7740   25.4300 O.2   219  ARG219     -0.2864
    138  CB        26.0190    7.1020   22.3650 C.3   219  ARG219      0.0334
    139  CG        26.9220    5.9150   22.1020 C.3   219  ARG219      0.0492
    140  CD        27.8440    6.2230   20.9300 C.3   219  ARG219      0.2205
    141  NE        28.7900    5.1470   20.6600 N.pl3 219  ARG219     -0.0865
    142  CZ        29.9490    4.9830   21.2900 C.cat 219  ARG219      0.5346
    143  NH1       30.3180    5.8200   22.2450 N.pl3 219  ARG219      0.1354
    144  NH2       30.7560    3.9960   20.9360 N.pl3 219  ARG219      0.1354
    145  N         19.6670    9.1450   21.0170 N.3   253  GLY253     -0.1210
    146  CA        19.9190   10.4910   20.5360 C.3   253  GLY253      0.1956
    147  C         19.2140   11.4660   21.4500 C.2   253  GLY253      0.2612
    148  O         18.4120   11.0500   22.2780 O.2   253  GLY253     -0.2717
    149  N         19.5380   12.7520   21.3520 N.am  254  THR254     -0.1952
    150  CA        18.8770   13.7390   22.1990 C.3   254  THR254      0.1897
    151  C         17.3910   13.8240   21.8470 C.2   254  THR254      0.2313
    152  O         16.5350   13.6590   22.7200 O.2   254  THR254     -0.2863
    153  CB        19.5400   15.1260   22.1020 C.3   254  THR254      0.1794
    154  OG1       20.8780   15.0450   22.6070 O.3   254  THR254     -0.2208
    155  CG2       18.7650   16.1420   22.9250 C.3   254  THR254      0.0378
@<TRIPOS>BOND
     1    29    28    2
     2    26    27    1
     3    28    27    1
     4    27    30    1
     5    57    56    2
     6    56    55    1
     7    66    67    1
     8    68    69    2
     9    68    67    1
    10    49    48    2
    11    48    47    1
    12    48    54   am
    13    67    70    1
    14    46    47    1
    15    30    31    1
    16    55    54    1
    17    55    58    1
    18    47    50    1
    19    31    32    1
    20    58    59    1
    21    70    71    1
    22    52    51    2
    23    50    51    1
    24    32    33    1
    25    51    53   am
    26    85    82    1
    27    59    61   ar
    28    59    60   ar
    29    35    34    1
    30    33    34    2
    31    61    63   ar
    32    82    81    1
    33    82    83    1
    34    34    36    1
    35    60    62   ar
    36    84    83    2
    37    75    74    2
    38    83    86   am
    39    63    64   ar
    40    62    64   ar
    41    72    73    1
    42    64    65    1
    43    74    73    1
    44    86    87    1
    45    77    78    1
    46    77    76    1
    47    73    76    1
    48    87    88    1
    49    97    96   ar
    50    79    78   ar
    51    78    80   ar
    52    39    40    2
    53    39    38    1
    54    38    37    1
    55    38    41    1
    56    96    98   ar
    57    96    95    1
    58    88    90   am
    59    88    89    2
    60    90    91    1
    61   107   108    1
    62    93    92    2
    63   113   112    1
    64   111   108    1
    65   111   112    1
    66    95    94    1
    67    42    41    1
    68    42    43    1
    69   108   109    1
    70    91    92    1
    71    91    94    1
    72    92    99   am
    73   112   114    1
    74    45    44    1
    75    44    43    1
    76   109   110    2
    77    99   100    1
    78   100   101    1
    79   100   103    1
    80   101   102    2
    81   105   104    2
    82   104   103    1
    83   104   106   am
    84    18    17    2
    85     1     2    1
    86    22    21    1
    87    22    23    2
    88    21    20    1
    89     2     3    1
    90    25    23    1
    91   115   116    1
    92    23    24    1
    93    20    19    1
    94   146   145    1
    95   146   147    1
    96   141   140    1
    97   141   142    2
    98    17    16    1
    99   140   139    1
   100   144   142    1
   101   116   117    1
   102   142   143    1
   103   149   147   am
   104   149   150    1
   105   147   148    2
   106    19    16    1
   107     3     4    2
   108    16    15    1
   109   151   150    1
   110   151   152    2
   111   153   150    1
   112   153   154    1
   113   153   155    1
   114   139   138    1
   115   138   135    1
   116   117   119   am
   117   117   118    2
   118   119   120    1
   119     8     7    2
   120    12    14   ar
   121    12    10   ar
   122   135   134    1
   123   135   136    1
   124   132   131    1
   125   134   129   am
   126    14    13   ar
   127   131   133    1
   128   131   128    1
   129     7     6    1
   130   124   126    1
   131   124   123    1
   132   127   128    1
   133   127   121   am
   134   120   123    1
   135   120   121    1
   136    10     9    1
   137    10    11   ar
   138   123   125    1
   139     6     9    1
   140     6     5    1
   141   136   137    2
   142   129   128    1
   143   129   130    2
   144   121   122    2
   145    13    11   ar
