@<TRIPOS>MOLECULE
tmp/1i2bA02.pdb
 212 205 0 0 0
SMALL
GASTEIGER

@<TRIPOS>ATOM
      1  N         70.0740   90.4190   35.0020 N.3   101  ARG101     -0.1231
      2  CA        69.9850   90.7970   33.5940 C.3   101  ARG101      0.1694
      3  C         70.5930   92.1040   33.1190 C.2   101  ARG101      0.2593
      4  O         70.5240   92.4110   31.9290 O.2   101  ARG101     -0.2718
      5  CB        68.5130   90.7730   33.1600 C.3   101  ARG101      0.0321
      6  CG        67.6540   91.8870   33.7550 C.3   101  ARG101      0.0489
      7  CD        67.3180   92.9560   32.7120 C.3   101  ARG101      0.2205
      8  NE        66.4000   93.9640   33.2440 N.pl3 101  ARG101     -0.0865
      9  CZ        66.5570   95.2760   33.0890 C.cat 101  ARG101      0.5346
     10  NH1       65.6770   96.1180   33.6140 N.pl3 101  ARG101      0.1354
     11  NH2       67.5940   95.7480   32.4090 N.pl3 101  ARG101      0.1354
     12  N         71.1910   92.8660   34.0240 N.am  102  SER102     -0.1938
     13  CA        71.7760   94.1520   33.6580 C.3   102  SER102      0.2055
     14  C         73.2160   94.0730   33.1730 C.2   102  SER102      0.2643
     15  O         74.0700   93.5060   33.8530 O.2   102  SER102     -0.2714
     16  CB        71.7180   95.1010   34.8510 C.3   102  SER102      0.2130
     17  OG        72.5380   96.2340   34.6210 O.3   102  SER102     -0.2179
     18  N         73.4860   94.6510   32.0060 N.am  103  ALA103     -0.1963
     19  CA        74.8460   94.6530   31.4760 C.3   103  ALA103      0.1713
     20  C         75.6980   95.5630   32.3630 C.2   103  ALA103      0.2458
     21  O         76.7830   95.1750   32.7930 O.2   103  ALA103     -0.2730
     22  CB        74.8600   95.1380   30.0290 C.3   103  ALA103      0.0333
     23  N         75.2160   96.7850   32.6600 N.am  104  PRO104     -0.2727
     24  CA        76.0120   97.6720   33.5160 C.3   104  PRO104      0.1402
     25  C         76.3140   97.0530   34.8840 C.2   104  PRO104      0.2269
     26  O         77.4330   97.1600   35.3900 O.2   104  PRO104     -0.2865
     27  CB        75.1310   98.9160   33.6400 C.3   104  PRO104      0.0296
     28  CG        74.4270   98.9540   32.3250 C.3   104  PRO104      0.0237
     29  CD        74.0390   97.4970   32.1280 C.3   104  PRO104      0.0939
     30  N         66.9600   84.0580   26.7830 N.3   144  GLY144     -0.1210
     31  CA        68.3380   84.2310   26.3690 C.3   144  GLY144      0.1956
     32  C         68.5490   85.7120   26.1260 C.2   144  GLY144      0.2612
     33  O         68.1930   86.5280   26.9760 O.2   144  GLY144     -0.2717
     34  N         69.1080   86.0660   24.9740 N.am  145  ALA145     -0.1965
     35  CA        69.3440   87.4700   24.6460 C.3   145  ALA145      0.1728
     36  C         69.8570   87.6480   23.2230 C.2   145  ALA145      0.2616
     37  O         70.7120   86.8910   22.7630 O.2   145  ALA145     -0.2715
     38  CB        70.3490   88.0770   25.6310 C.3   145  ALA145      0.0334
     39  N         69.3250   88.6430   22.5190 N.am  146  MET146     -0.1963
     40  CA        69.7830   88.9210   21.1620 C.3   146  MET146      0.1736
     41  C         71.2630   89.3080   21.2320 C.2   146  MET146      0.2617
     42  O         72.0120   89.1370   20.2700 O.2   146  MET146     -0.2715
     43  CB        68.9840   90.0750   20.5490 C.3   146  MET146      0.0427
     44  CG        67.6110   89.6790   20.0140 C.3   146  MET146      0.0599
     45  SD        67.7000   88.4100   18.7220 S.3   146  MET146     -0.1393
     46  CE        68.7020   89.2320   17.4800 C.3   146  MET146      0.0692
     47  N         71.6690   89.8260   22.3880 N.am  147  GLY147     -0.1955
     48  CA        73.0500   90.2330   22.5900 C.3   147  GLY147      0.1869
     49  C         74.0480   89.0920   22.4740 C.2   147  GLY147      0.2309
     50  O         75.2530   89.3250   22.3530 O.2   147  GLY147     -0.2863
     51  N         77.3440   90.0160   31.6140 N.3   182  TYR182     -0.1227
     52  CA        75.9590   89.5620   31.6730 C.3   182  TYR182      0.1736
     53  C         75.6160   88.8300   30.3680 C.2   182  TYR182      0.2595
     54  O         75.1330   87.6960   30.3890 O.2   182  TYR182     -0.2718
     55  CB        74.9880   90.7400   31.8380 C.3   182  TYR182      0.0548
     56  CG        73.6530   90.4410   31.1960 C.ar  182  TYR182     -0.0200
     57  CD1       72.8360   89.4300   31.7000 C.ar  182  TYR182     -0.0009
     58  CD2       73.2700   91.0660   30.0040 C.ar  182  TYR182     -0.0009
     59  CE1       71.6870   89.0350   31.0330 C.ar  182  TYR182      0.0417
     60  CE2       72.1140   90.6770   29.3250 C.ar  182  TYR182      0.0417
     61  CZ        71.3330   89.6530   29.8490 C.ar  182  TYR182      0.1957
     62  OH        70.2200   89.2090   29.1750 O.3   182  TYR182     -0.2866
     63  N         75.8460   89.4830   29.2300 N.am  183  HIS183     -0.1975
     64  CA        75.5370   88.8560   27.9490 C.3   183  HIS183      0.1656
     65  C         76.3130   87.5610   27.7890 C.2   183  HIS183      0.2291
     66  O         75.8180   86.5990   27.2020 O.2   183  HIS183     -0.2864
     67  CB        75.8460   89.7960   26.7800 C.3   183  HIS183      0.0771
     68  CG        74.8510   90.9050   26.6190 C.ar  183  HIS183      0.0820
     69  ND1       75.0570   92.1710   27.1250 N.ar  183  HIS183     -0.2267
     70  CD2       73.6380   90.9330   26.0190 C.ar  183  HIS183      0.1154
     71  CE1       74.0140   92.9310   26.8420 C.ar  183  HIS183      0.1986
     72  NE2       73.1380   92.2040   26.1710 N.ar  183  HIS183     -0.2212
     73  N         65.5590   87.3490   23.3210 N.3   209  GLN209     -0.1231
     74  CA        64.7680   88.5680   23.3110 C.3   209  GLN209      0.1698
     75  C         65.5610   89.8540   23.1220 C.2   209  GLN209      0.2593
     76  O         66.7060   89.9710   23.5670 O.2   209  GLN209     -0.2718
     77  CB        63.9640   88.6340   24.6130 C.3   209  GLN209      0.0381
     78  CG        62.9640   89.7690   24.6960 C.3   209  GLN209      0.0905
     79  CD        62.0720   89.6610   25.9210 C.2   209  GLN209      0.2608
     80  OE1       62.5410   89.7280   27.0620 O.2   209  GLN209     -0.2717
     81  NE2       60.7760   89.4910   25.6900 N.am  209  GLN209     -0.0878
     82  N         64.9370   90.8100   22.4390 N.am  210  GLY210     -0.1942
     83  CA        65.5600   92.1000   22.2190 C.3   210  GLY210      0.2014
     84  C         65.1930   92.9830   23.3960 C.2   210  GLY210      0.2638
     85  O         64.6810   92.4940   24.4050 O.2   210  GLY210     -0.2714
     86  N         65.4360   94.2820   23.2760 N.am  211  VAL211     -0.1977
     87  CA        65.1340   95.2060   24.3600 C.3   211  VAL211      0.1596
     88  C         63.6330   95.4270   24.5090 C.2   211  VAL211      0.2287
     89  O         62.9490   95.7590   23.5440 O.2   211  VAL211     -0.2864
     90  CB        65.8160   96.5710   24.1270 C.3   211  VAL211      0.0276
     91  CG1       65.5880   97.4740   25.3220 C.3   211  VAL211      0.0022
     92  CG2       67.3050   96.3740   23.8830 C.3   211  VAL211      0.0022
     93  N         67.8360  100.5230   33.7840 N.3   237  GLY237     -0.1210
     94  CA        66.9910  101.0910   32.7530 C.3   237  GLY237      0.1956
     95  C         67.5380  100.7400   31.3800 C.2   237  GLY237      0.2613
     96  O         68.7430  100.5220   31.2240 O.2   237  GLY237     -0.2717
     97  N         66.6560  100.6630   30.3870 N.am  238  THR238     -0.1938
     98  CA        67.0660  100.3640   29.0200 C.3   238  THR238      0.2028
     99  C         66.7160  101.5480   28.1140 C.2   238  THR238      0.2642
    100  O         65.9340  102.4190   28.4940 O.2   238  THR238     -0.2714
    101  CB        66.4130   99.0680   28.4990 C.3   238  THR238      0.1808
    102  OG1       64.9900   99.1630   28.6120 O.3   238  THR238     -0.2208
    103  CG2       66.9010   97.8710   29.3110 C.3   238  THR238      0.0379
    104  N         67.2960  101.5580   26.9190 N.am  239  ALA239     -0.1977
    105  CA        67.1520  102.6440   25.9450 C.3   239  ALA239      0.1597
    106  C         65.8380  103.4160   25.7940 C.2   239  ALA239      0.2287
    107  O         65.7660  104.5980   26.1490 O.2   239  ALA239     -0.2864
    108  CB        67.6030  102.1520   24.5770 C.3   239  ALA239      0.0319
    109  N         64.1790  104.5740   29.0970 N.3   242  ARG242     -0.1231
    110  CA        65.0010  105.6430   29.6510 C.3   242  ARG242      0.1694
    111  C         64.7550  106.9680   28.9460 C.2   242  ARG242      0.2592
    112  O         64.6190  108.0050   29.5990 O.2   242  ARG242     -0.2718
    113  CB        66.4890  105.2780   29.5690 C.3   242  ARG242      0.0321
    114  CG        66.9860  104.4720   30.7650 C.3   242  ARG242      0.0489
    115  CD        68.4140  103.9680   30.5670 C.3   242  ARG242      0.2205
    116  NE        69.3800  105.0230   30.2480 N.pl3 242  ARG242     -0.0865
    117  CZ        69.8250  105.9390   31.1050 C.cat 242  ARG242      0.5346
    118  NH1       69.3970  105.9610   32.3630 N.pl3 242  ARG242      0.1354
    119  NH2       70.7300  106.8240   30.7040 N.pl3 242  ARG242      0.1354
    120  N         64.6970  106.9340   27.6170 N.am  243  PHE243     -0.1976
    121  CA        64.4670  108.1480   26.8370 C.3   243  PHE243      0.1639
    122  C         63.1100  108.7770   27.1380 C.2   243  PHE243      0.2290
    123  O         62.9970  110.0010   27.2300 O.2   243  PHE243     -0.2864
    124  CB        64.5710  107.8520   25.3350 C.3   243  PHE243      0.0560
    125  CG        65.9870  107.7120   24.8310 C.ar  243  PHE243     -0.0200
    126  CD1       67.0710  107.7950   25.7030 C.ar  243  PHE243     -0.0042
    127  CD2       66.2330  107.4930   23.4770 C.ar  243  PHE243     -0.0042
    128  CE1       68.3760  107.6640   25.2360 C.ar  243  PHE243     -0.0003
    129  CE2       67.5340  107.3590   22.9980 C.ar  243  PHE243     -0.0003
    130  CZ        68.6090  107.4440   23.8810 C.ar  243  PHE243     -0.0000
    131  N         69.9670  110.7320   26.4650 N.3   254  THR254     -0.1218
    132  CA        71.3410  110.2610   26.5760 C.3   254  THR254      0.1862
    133  C         71.7750  109.2770   25.4970 C.2   254  THR254      0.2287
    134  O         71.6500  108.0620   25.6590 O.2   254  THR254     -0.2866
    135  CB        71.5880  109.6190   27.9560 C.3   254  THR254      0.1770
    136  OG1       70.6460  108.5580   28.1680 O.3   254  THR254     -0.2211
    137  CG2       71.4300  110.6510   29.0560 C.3   254  THR254      0.0375
    138  N         74.5050  107.3310   23.7100 N.3   256  TYR256     -0.1241
    139  CA        75.8650  106.8780   23.9820 C.3   256  TYR256      0.1605
    140  C         76.6700  106.8240   22.6890 C.2   256  TYR256      0.2264
    141  O         76.3020  106.1250   21.7440 O.2   256  TYR256     -0.2867
    142  CB        75.8540  105.4880   24.6370 C.3   256  TYR256      0.0534
    143  CG        75.1830  105.4200   25.9970 C.ar  256  TYR256     -0.0201
    144  CD1       74.7490  106.5760   26.6540 C.ar  256  TYR256     -0.0009
    145  CD2       74.9870  104.1920   26.6330 C.ar  256  TYR256     -0.0009
    146  CE1       74.1350  106.5090   27.9100 C.ar  256  TYR256      0.0417
    147  CE2       74.3770  104.1130   27.8840 C.ar  256  TYR256      0.0417
    148  CZ        73.9520  105.2730   28.5160 C.ar  256  TYR256      0.1957
    149  OH        73.3350  105.1910   29.7420 O.3   256  TYR256     -0.2866
    150  N         74.1510  102.3660   17.3270 N.3   261  GLN261     -0.1245
    151  CA        73.9050  101.0400   17.8910 C.3   261  GLN261      0.1566
    152  C         72.4890  100.6130   17.5340 C.2   261  GLN261      0.2260
    153  O         71.5180  101.2830   17.8900 O.2   261  GLN261     -0.2867
    154  CB        74.0690  101.0460   19.4140 C.3   261  GLN261      0.0367
    155  CG        75.4600  101.4260   19.9100 C.3   261  GLN261      0.0905
    156  CD        75.6040  102.9190   20.1430 C.2   261  GLN261      0.2608
    157  OE1       75.3700  103.7250   19.2410 O.2   261  GLN261     -0.2717
    158  NE2       75.9870  103.2930   21.3580 N.am  261  GLN261     -0.0878
    159  N         69.4950   97.5740   17.5440 N.3   263  ARG263     -0.1231
    160  CA        69.0310   96.3910   18.2530 C.3   263  ARG263      0.1694
    161  C         67.5720   96.0950   17.9290 C.2   263  ARG263      0.2593
    162  O         66.8690   96.9240   17.3510 O.2   263  ARG263     -0.2718
    163  CB        69.1460   96.6150   19.7630 C.3   263  ARG263      0.0321
    164  CG        70.5240   97.0400   20.2630 C.3   263  ARG263      0.0489
    165  CD        71.4740   95.8560   20.3670 C.3   263  ARG263      0.2205
    166  NE        72.7170   96.2200   21.0420 N.pl3 263  ARG263     -0.0865
    167  CZ        73.7720   96.7670   20.4420 C.cat 263  ARG263      0.5346
    168  NH1       73.7470   97.0150   19.1390 N.pl3 263  ARG263      0.1354
    169  NH2       74.8530   97.0700   21.1530 N.pl3 263  ARG263      0.1354
    170  N         67.1270   94.9040   18.3150 N.am  264  GLY264     -0.1942
    171  CA        65.7410   94.5360   18.1160 C.3   264  GLY264      0.2014
    172  C         64.9960   94.9720   19.3670 C.2   264  GLY264      0.2638
    173  O         65.5530   94.9250   20.4690 O.2   264  GLY264     -0.2714
    174  N         63.7540   95.4160   19.2030 N.am  265  TYR265     -0.1973
    175  CA        62.9300   95.8580   20.3260 C.3   265  TYR265      0.1639
    176  C         61.5440   95.2280   20.2610 C.2   265  TYR265      0.2290
    177  O         61.1180   94.7570   19.2080 O.2   265  TYR265     -0.2864
    178  CB        62.7520   97.3830   20.3090 C.3   265  TYR265      0.0560
    179  CG        64.0000   98.1760   20.6210 C.ar  265  TYR265     -0.0198
    180  CD1       65.0140   98.3260   19.6740 C.ar  265  TYR265     -0.0009
    181  CD2       64.1860   98.7400   21.8820 C.ar  265  TYR265     -0.0009
    182  CE1       66.1910   99.0170   19.9810 C.ar  265  TYR265      0.0417
    183  CE2       65.3550   99.4300   22.2000 C.ar  265  TYR265      0.0417
    184  CZ        66.3520   99.5600   21.2470 C.ar  265  TYR265      0.1957
    185  OH        67.5190  100.2080   21.5740 O.3   265  TYR265     -0.2866
    186  N         69.8090  103.7030   18.1570 N.3   300  VAL300     -0.1245
    187  CA        69.5880  104.6310   19.2590 C.3   300  VAL300      0.1561
    188  C         69.1360  105.9890   18.7250 C.2   300  VAL300      0.2260
    189  O         68.2230  106.6110   19.2750 O.2   300  VAL300     -0.2867
    190  CB        70.8670  104.8170   20.1050 C.3   300  VAL300      0.0252
    191  CG1       70.6320  105.8680   21.1880 C.3   300  VAL300      0.0019
    192  CG2       71.2590  103.4890   20.7430 C.3   300  VAL300      0.0019
    193  N         80.3240  102.1270   27.4300 N.3   327  ARG327     -0.1245
    194  CA        80.4920  100.7650   26.9310 C.3   327  ARG327      0.1563
    195  C         81.4670  100.6230   25.7720 C.2   327  ARG327      0.2260
    196  O         81.7860  101.5890   25.0790 O.2   327  ARG327     -0.2867
    197  CB        79.1400  100.2070   26.4740 C.3   327  ARG327      0.0307
    198  CG        78.0040  100.4120   27.4590 C.3   327  ARG327      0.0489
    199  CD        76.7560   99.6520   27.0100 C.3   327  ARG327      0.2205
    200  NE        75.6540   99.8270   27.9490 N.pl3 327  ARG327     -0.0865
    201  CZ        74.5310   99.1160   27.9280 C.cat 327  ARG327      0.5346
    202  NH1       73.5840   99.3490   28.8260 N.pl3 327  ARG327      0.1354
    203  NH2       74.3600   98.1650   27.0170 N.pl3 327  ARG327      0.1354
    204  N         81.5630   98.9070   22.4030 N.3   329  GLU329     -0.1245
    205  CA        80.6620   98.2850   21.4400 C.3   329  GLU329      0.1567
    206  C         80.7540   99.0530   20.1270 C.2   329  GLU329      0.2260
    207  O         81.2640  100.1740   20.0940 O.2   329  GLU329     -0.2867
    208  CB        79.2190   98.3560   21.9620 C.3   329  GLU329      0.0388
    209  CG        78.6470   99.7770   21.9510 C.3   329  GLU329      0.1160
    210  CD        77.3030   99.9090   22.6540 C.2   329  GLU329      0.3649
    211  OE1       76.5370   98.9210   22.6950 O.co2 329  GLU329     -0.2457
    212  OE2       77.0040  101.0180   23.1510 O.co2 329  GLU329     -0.2457
@<TRIPOS>BOND
     1   150   151    1
     2   162   161    2
     3    46    45    1
     4   152   153    2
     5   152   151    1
     6   159   160    1
     7   151   154    1
     8   161   160    1
     9   161   170   am
    10   171   170    1
    11   171   172    1
    12   186   187    1
    13   160   163    1
    14    45    44    1
    15   188   187    1
    16   188   189    2
    17   168   167    1
    18   174   172   am
    19   174   175    1
    20   177   176    2
    21   157   156    2
    22   187   190    1
    23   172   173    2
    24   154   155    1
    25   180   182   ar
    26   180   179   ar
    27   163   164    1
    28   155   156    1
    29   182   184   ar
    30    44    43    1
    31   207   206    2
    32   190   192    1
    33   190   191    1
    34   206   205    1
    35   156   158   am
    36   176   175    1
    37   164   165    1
    38    42    41    2
    39   178   175    1
    40   178   179    1
    41   165   166    1
    42   167   166    2
    43   167   169    1
    44    43    40    1
    45   179   181   ar
    46    40    41    1
    47    40    39    1
    48    41    47   am
    49   184   185    1
    50   184   183   ar
    51   205   208    1
    52   205   204    1
    53   141   140    2
    54   181   183   ar
    55   209   208    1
    56   209   210    1
    57    83    82    1
    58    83    84    1
    59    50    49    2
    60    47    48    1
    61    82    75   am
    62    49    48    1
    63    39    36   am
    64   210   211   ar
    65   210   212   ar
    66   140   139    1
    67    37    36    2
    68   129   127   ar
    69   129   130   ar
    70    75    74    1
    71    75    76    2
    72    36    35    1
    73    86    84   am
    74    86    87    1
    75    74    73    1
    76    74    77    1
    77    84    85    2
    78   127   125   ar
    79    89    88    2
    80   138   139    1
    81   130   128   ar
    82    92    90    1
    83   139   142    1
    84    90    87    1
    85    90    91    1
    86    87    88    1
    87   108   105    1
    88    77    78    1
    89   142   143    1
    90    35    34    1
    91    35    38    1
    92    78    79    1
    93   125   124    1
    94   125   126   ar
    95    34    32   am
    96   196   195    2
    97   128   126   ar
    98   124   121    1
    99   133   134    2
   100   133   132    1
   101    81    79   am
   102   195   194    1
   103   106   105    1
   104   106   107    2
   105    79    80    2
   106   105   104    1
   107   143   145   ar
   108   143   144   ar
   109    70    72   ar
   110    70    68   ar
   111    32    31    1
   112    32    33    2
   113    72    71   ar
   114    31    30    1
   115   131   132    1
   116   197   194    1
   117   197   198    1
   118   132   135    1
   119    68    67    1
   120    68    69   ar
   121   145   147   ar
   122   144   146   ar
   123    67    64    1
   124   121   122    1
   125   121   120    1
   126    71    69   ar
   127   104    99   am
   128   194   193    1
   129   199   198    1
   130   199   200    1
   131   203   201    1
   132   122   123    2
   133    66    65    2
   134   120   111   am
   135    65    64    1
   136   147   148   ar
   137   146   148   ar
   138   201   200    2
   139   201   202    1
   140    64    63    1
   141   135   136    1
   142   135   137    1
   143    99   100    2
   144    99    98    1
   145   101   102    1
   146   101    98    1
   147   101   103    1
   148   148   149    1
   149   111   112    2
   150   111   110    1
   151    98    97    1
   152   109   110    1
   153    62    61    1
   154    63    53   am
   155    60    61   ar
   156    60    58   ar
   157   113   110    1
   158   113   114    1
   159    61    59   ar
   160    58    56   ar
   161    22    19    1
   162   116   115    1
   163   116   117    2
   164    53    54    2
   165    53    52    1
   166    97    95   am
   167   115   114    1
   168   119   117    1
   169    59    57   ar
   170   117   118    1
   171    56    57   ar
   172    56    55    1
   173    96    95    2
   174    95    94    1
   175    19    18    1
   176    19    20    1
   177    51    52    1
   178    52    55    1
   179     4     3    2
   180    18    14   am
   181    29    28    1
   182    29    23    1
   183    28    27    1
   184    20    23   am
   185    20    21    2
   186    11     9    1
   187    23    24    1
   188     7     8    1
   189     7     6    1
   190    94    93    1
   191     9     8    2
   192     9    10    1
   193     3     2    1
   194     3    12   am
   195     5     2    1
   196     5     6    1
   197    14    13    1
   198    14    15    2
   199    24    27    1
   200    24    25    1
   201     2     1    1
   202    13    12    1
   203    13    16    1
   204    17    16    1
   205    25    26    2
