@<TRIPOS>MOLECULE
tmp/1i2dC01.pdb
 159 153 0 0 0
SMALL
GASTEIGER

@<TRIPOS>ATOM
      1  N         -4.8660  101.4450  116.2870 N.3   404  MET404     -0.1245
      2  CA        -6.0650  100.6380  116.2420 C.3   404  MET404      0.1570
      3  C         -7.1450  101.6520  115.8620 C.2   404  MET404      0.2261
      4  O         -7.1180  102.7910  116.3340 O.2   404  MET404     -0.2867
      5  CB        -6.3240  100.0130  117.6070 C.3   404  MET404      0.0387
      6  CG        -7.4190   98.9830  117.6030 C.3   404  MET404      0.0595
      7  SD        -9.0140   99.7900  117.6440 S.3   404  MET404     -0.1393
      8  CE        -9.9010   98.7270  118.8270 C.3   404  MET404      0.0692
      9  N         -7.2510  101.5540  108.8510 N.3   408  LYS408     -0.1245
     10  CA        -6.4440  100.5580  108.1690 C.3   408  LYS408      0.1561
     11  C         -7.2460   99.3000  107.8610 C.2   408  LYS408      0.2260
     12  O         -7.0320   98.6810  106.8250 O.2   408  LYS408     -0.2867
     13  CB        -5.2060  100.2140  108.9980 C.3   408  LYS408      0.0271
     14  CG        -5.4970   99.5250  110.3080 C.3   408  LYS408      0.0035
     15  CD        -4.2120   99.2990  111.0700 C.3   408  LYS408      0.0206
     16  CE        -4.5000   98.6640  112.3960 C.3   408  LYS408      0.1093
     17  NZ        -5.2620   97.3750  112.2770 N.3   408  LYS408     -0.1314
     18  N         -5.7620   92.6900  111.0440 N.3   432  GLY432     -0.1210
     19  CA        -5.2100   92.5450  112.3740 C.3   432  GLY432      0.1956
     20  C         -5.9930   91.5610  113.2230 C.2   432  GLY432      0.2611
     21  O         -5.4340   90.5990  113.7550 O.2   432  GLY432     -0.2717
     22  N         -7.2980   91.7830  113.3370 N.am  433  ASP433     -0.1973
     23  CA        -8.1330   90.9180  114.1540 C.3   433  ASP433      0.1709
     24  C         -8.2250   89.4980  113.6560 C.2   433  ASP433      0.2293
     25  O         -8.3530   88.5740  114.4550 O.2   433  ASP433     -0.2864
     26  CB        -9.5380   91.5000  114.2830 C.3   433  ASP433      0.1436
     27  CG        -9.5900   92.7210  115.2020 C.2   433  ASP433      0.3671
     28  OD1       -8.5270   93.3140  115.4880 O.co2 433  ASP433     -0.2456
     29  OD2      -10.7030   93.0970  115.6300 O.co2 433  ASP433     -0.2456
     30  N         -5.8450   87.8500  111.9330 N.3   435  VAL435     -0.1231
     31  CA        -4.5550   87.2460  112.2350 C.3   435  VAL435      0.1692
     32  C         -4.5870   86.8110  113.6950 C.2   435  VAL435      0.2591
     33  O         -4.3200   85.6430  114.0030 O.2   435  VAL435     -0.2718
     34  CB        -3.4150   88.2620  112.0290 C.3   435  VAL435      0.0266
     35  CG1       -2.1320   87.7410  112.5920 C.3   435  VAL435      0.0020
     36  CG2       -3.2250   88.5090  110.5810 C.3   435  VAL435      0.0020
     37  N         -4.9390   87.7600  114.5760 N.am  436  ARG436     -0.1980
     38  CA        -5.0220   87.5160  116.0200 C.3   436  ARG436      0.1597
     39  C         -5.9060   86.3360  116.3340 C.2   436  ARG436      0.2287
     40  O         -5.5530   85.5110  117.1590 O.2   436  ARG436     -0.2864
     41  CB        -5.5540   88.7400  116.7780 C.3   436  ARG436      0.0334
     42  CG        -4.5210   89.7920  117.0360 C.3   436  ARG436      0.0492
     43  CD        -3.6180   89.3590  118.1270 C.3   436  ARG436      0.2205
     44  NE        -2.4530   90.2240  118.1970 N.pl3 436  ARG436     -0.0865
     45  CZ        -1.5750   90.2040  119.1930 C.cat 436  ARG436      0.5346
     46  NH1       -1.7510   89.3480  120.2060 N.pl3 436  ARG436      0.1354
     47  NH2       -0.5290   91.0370  119.1670 N.pl3 436  ARG436      0.1354
     48  N          0.2100   91.2110  124.5390 N.3   445  PHE445     -0.1241
     49  CA         0.6040   92.4550  123.8870 C.3   445  PHE445      0.1605
     50  C          1.8980   93.0660  124.3720 C.2   445  PHE445      0.2264
     51  O          2.1520   94.2780  124.2800 O.2   445  PHE445     -0.2867
     52  CB        -0.5520   93.4390  123.9440 C.3   445  PHE445      0.0534
     53  CG        -1.7550   92.9480  123.2050 C.ar  445  PHE445     -0.0203
     54  CD1       -2.6120   91.9810  123.7710 C.ar  445  PHE445     -0.0042
     55  CD2       -1.9710   93.3420  121.8960 C.ar  445  PHE445     -0.0042
     56  CE1       -3.6680   91.4060  123.0290 C.ar  445  PHE445     -0.0003
     57  CE2       -3.0160   92.7770  121.1480 C.ar  445  PHE445     -0.0003
     58  CZ        -3.8650   91.8050  121.7170 C.ar  445  PHE445     -0.0000
     59  N          4.0930   90.8690  120.5640 N.3   450  ARG450     -0.1245
     60  CA         3.6660   91.5780  119.3650 C.3   450  ARG450      0.1563
     61  C          4.6700   91.2100  118.2930 C.2   450  ARG450      0.2260
     62  O          4.2960   90.7600  117.2150 O.2   450  ARG450     -0.2867
     63  CB         3.6440   93.0990  119.5970 C.3   450  ARG450      0.0307
     64  CG         2.5910   93.4960  120.6250 C.3   450  ARG450      0.0489
     65  CD         2.3450   94.9990  120.7540 C.3   450  ARG450      0.2205
     66  NE         1.1510   95.2490  121.5760 N.pl3 450  ARG450     -0.0865
     67  CZ         0.5080   96.4140  121.6710 C.cat 450  ARG450      0.5346
     68  NH1        0.9200   97.4870  121.0010 N.pl3 450  ARG450      0.1354
     69  NH2       -0.5680   96.4960  122.4330 N.pl3 450  ARG450      0.1354
     70  N          4.0000   87.9560  116.8990 N.3   453  ASN453     -0.1225
     71  CA         2.8310   88.0480  116.0420 C.3   453  ASN453      0.1785
     72  C          3.2030   88.5320  114.6430 C.2   453  ASN453      0.2597
     73  O          2.8860   87.8700  113.6670 O.2   453  ASN453     -0.2718
     74  CB         1.8380   89.0010  116.6780 C.3   453  ASN453      0.1169
     75  CG         0.5520   89.1000  115.9090 C.2   453  ASN453      0.2627
     76  OD1        0.0840   90.2030  115.6170 O.2   453  ASN453     -0.2716
     77  ND2       -0.0440   87.9540  115.5910 N.am  453  ASN453     -0.0877
     78  N          3.8790   89.6750  114.5490 N.am  454  ILE454     -0.1980
     79  CA         4.2920   90.2110  113.2510 C.3   454  ILE454      0.1595
     80  C          5.1720   89.2460  112.4710 C.2   454  ILE454      0.2287
     81  O          5.1720   89.2570  111.2490 O.2   454  ILE454     -0.2864
     82  CB         5.0580   91.5410  113.3850 C.3   454  ILE454      0.0276
     83  CG1        4.1490   92.5910  114.0330 C.3   454  ILE454      0.0022
     84  CG2        5.5680   92.0060  112.0240 C.3   454  ILE454      0.0022
     85  CD1        2.7710   92.7090  113.4020 C.3   454  ILE454      0.0001
     86  N         -2.1490   94.8020  110.5700 N.3   475  PRO475     -0.2102
     87  CA        -2.0760   94.6260  112.0150 C.3   475  PRO475      0.1504
     88  C         -1.6390   96.0050  112.5130 C.2   475  PRO475      0.2576
     89  O         -1.3800   96.8990  111.6890 O.2   475  PRO475     -0.2718
     90  CB        -0.9930   93.5770  112.1450 C.3   475  PRO475      0.0282
     91  CG         0.0320   94.0590  111.0740 C.3   475  PRO475      0.0208
     92  CD        -0.8380   94.5500  109.9260 C.3   475  PRO475      0.0893
     93  N         -1.5630   96.2030  113.8270 N.am  476  ILE476     -0.1966
     94  CA        -1.1120   97.4950  114.3160 C.3   476  ILE476      0.1727
     95  C          0.3700   97.7050  113.9750 C.2   476  ILE476      0.2616
     96  O          0.7380   98.7430  113.4050 O.2   476  ILE476     -0.2715
     97  CB        -1.3140   97.6200  115.8160 C.3   476  ILE476      0.0290
     98  CG1       -2.8110   97.5170  116.1190 C.3   476  ILE476      0.0022
     99  CG2       -0.6990   98.9410  116.2980 C.3   476  ILE476      0.0023
    100  CD1       -3.1940   97.7900  117.5370 C.3   476  ILE476      0.0001
    101  N          1.1980   96.7050  114.3120 N.am  477  ALA477     -0.1964
    102  CA         2.6530   96.7030  114.0650 C.3   477  ALA477      0.1713
    103  C          3.2920   97.9770  114.5880 C.2   477  ALA477      0.2458
    104  O          3.8060   98.7980  113.8160 O.2   477  ALA477     -0.2730
    105  CB         2.9430   96.5610  112.5890 C.3   477  ALA477      0.0333
    106  N          3.2950   98.1400  115.9220 N.am  478  PRO478     -0.2727
    107  CA         3.8480   99.3050  116.6250 C.3   478  PRO478      0.1402
    108  C          5.3610   99.4950  116.5670 C.2   478  PRO478      0.2269
    109  O          5.8390  100.6360  116.5630 O.2   478  PRO478     -0.2865
    110  CB         3.3650   99.1070  118.0680 C.3   478  PRO478      0.0296
    111  CG         2.3060   97.9950  117.9810 C.3   478  PRO478      0.0237
    112  CD         2.8120   97.1320  116.8840 C.3   478  PRO478      0.0939
    113  N        -13.3290  100.5490  122.9830 N.3   516  ILE516     -0.1245
    114  CA       -12.1160   99.8640  123.3840 C.3   516  ILE516      0.1561
    115  C        -11.1620  100.9370  123.8880 C.2   516  ILE516      0.2260
    116  O        -10.5540  100.7620  124.9330 O.2   516  ILE516     -0.2867
    117  CB       -11.4920   99.0590  122.2160 C.3   516  ILE516      0.0252
    118  CG1      -12.3770   97.8510  121.8940 C.3   516  ILE516      0.0019
    119  CG2      -10.1060   98.5610  122.5970 C.3   516  ILE516      0.0019
    120  CD1      -12.0330   97.1780  120.5990 C.3   516  ILE516      0.0001
    121  N         -8.0190   97.9420  130.2610 N.3   525  ILE525     -0.1231
    122  CA        -7.1080   97.3050  129.3010 C.3   525  ILE525      0.1692
    123  C         -5.7120   97.9280  129.4400 C.2   525  ILE525      0.2592
    124  O         -5.4560   99.0660  129.0030 O.2   525  ILE525     -0.2718
    125  CB        -7.5920   97.4780  127.8260 C.3   525  ILE525      0.0266
    126  CG1       -8.8780   96.6800  127.5870 C.3   525  ILE525      0.0019
    127  CG2       -6.5060   97.0120  126.8520 C.3   525  ILE525      0.0020
    128  CD1       -9.5410   97.0100  126.2760 C.3   525  ILE525      0.0001
    129  N         -4.8190   97.1580  130.0520 N.am  526  LYS526     -0.1966
    130  CA        -3.4500   97.5870  130.2860 C.3   526  LYS526      0.1728
    131  C         -2.6040   97.5810  129.0060 C.2   526  LYS526      0.2617
    132  O         -2.8460   96.7990  128.0810 O.2   526  LYS526     -0.2715
    133  CB        -2.8060   96.6890  131.3670 C.3   526  LYS526      0.0311
    134  CG        -3.4810   96.8240  132.7070 C.3   526  LYS526      0.0038
    135  CD        -3.2140   98.1930  133.3330 C.3   526  LYS526      0.0206
    136  CE        -3.6510   98.1080  134.7910 C.3   526  LYS526      0.1093
    137  NZ        -4.9120   98.8650  135.0300 N.3   526  LYS526     -0.1314
    138  N         -1.6290   98.4860  128.9620 N.am  527  GLY527     -0.1940
    139  CA        -0.7140   98.5810  127.8370 C.3   527  GLY527      0.2014
    140  C         -1.2700   98.6950  126.4330 C.2   527  GLY527      0.2639
    141  O         -0.6460   98.2150  125.4850 O.2   527  GLY527     -0.2714
    142  N         -2.4240   99.3380  126.2860 N.am  528  PHE528     -0.1959
    143  CA        -3.0410   99.5070  124.9710 C.3   528  PHE528      0.1771
    144  C         -2.2990  100.5350  124.1080 C.2   528  PHE528      0.2620
    145  O         -2.1150  101.6810  124.5120 O.2   528  PHE528     -0.2715
    146  CB        -4.4880   99.9480  125.1350 C.3   528  PHE528      0.0574
    147  CG        -5.2530   99.9630  123.8520 C.ar  528  PHE528     -0.0200
    148  CD1       -5.9750   98.8400  123.4500 C.ar  528  PHE528     -0.0042
    149  CD2       -5.2610  101.1000  123.0470 C.ar  528  PHE528     -0.0042
    150  CE1       -6.6990   98.8480  122.2670 C.ar  528  PHE528     -0.0003
    151  CE2       -5.9810  101.1210  121.8610 C.ar  528  PHE528     -0.0003
    152  CZ        -6.7050   99.9920  121.4690 C.ar  528  PHE528     -0.0000
    153  N         -1.8970  100.1320  122.9100 N.am  529  THR529     -0.1951
    154  CA        -1.1680  101.0310  122.0200 C.3   529  THR529      0.1897
    155  C         -1.7690  102.4340  121.9550 C.2   529  THR529      0.2313
    156  O         -2.9800  102.5860  121.7880 O.2   529  THR529     -0.2863
    157  CB        -1.1260  100.4680  120.6110 C.3   529  THR529      0.1794
    158  OG1       -0.6590   99.1110  120.6580 O.3   529  THR529     -0.2208
    159  CG2       -0.2080  101.3360  119.7350 C.3   529  THR529      0.0378
@<TRIPOS>BOND
     1    12    11    2
     2    11    10    1
     3    10     9    1
     4    10    13    1
     5    13    14    1
     6    92    86    1
     7    92    91    1
     8    14    15    1
     9    86    87    1
    10    36    34    1
    11    18    19    1
    12    15    16    1
    13    91    90    1
    14    81    80    2
    15    89    88    2
    16    30    31    1
    17    87    90    1
    18    87    88    1
    19    84    82    1
    20    34    31    1
    21    34    35    1
    22    31    32    1
    23    17    16    1
    24    19    20    1
    25    80    79    1
    26    88    93   am
    27   105   102    1
    28    20    22   am
    29    20    21    2
    30    79    82    1
    31    79    78    1
    32    22    23    1
    33    82    83    1
    34    85    83    1
    35    96    95    2
    36    24    23    1
    37    24    25    2
    38    73    72    2
    39    32    33    2
    40    32    37   am
    41   104   103    2
    42    93    94    1
    43    95   101   am
    44    95    94    1
    45   102   101    1
    46   102   103    1
    47    23    26    1
    48    26    27    1
    49    94    97    1
    50    78    72   am
    51    37    38    1
    52   103   106   am
    53    72    71    1
    54    27    28   ar
    55    27    29   ar
    56    77    75   am
    57    76    75    2
    58    97    98    1
    59    97    99    1
    60     3     2    1
    61     3     4    2
    62    75    74    1
    63   106   107    1
    64   106   112    1
    65    38    39    1
    66    38    41    1
    67    71    74    1
    68    71    70    1
    69    98   100    1
    70     2     1    1
    71     2     5    1
    72    39    40    2
    73   109   108    2
    74   108   107    1
    75   107   110    1
    76    41    42    1
    77   112   111    1
    78    42    43    1
    79    62    61    2
    80     6     5    1
    81     6     7    1
    82     7     8    1
    83   111   110    1
    84    43    44    1
    85    44    45    2
    86    61    60    1
    87    47    45    1
    88    45    46    1
    89    60    63    1
    90    60    59    1
    91    63    64    1
    92   159   157    1
    93   120   118    1
    94   157   158    1
    95   157   154    1
    96    64    65    1
    97    65    66    1
    98    68    67    1
    99    57    58   ar
   100    57    55   ar
   101   152   151   ar
   102   152   150   ar
   103    66    67    2
   104    67    69    1
   105    58    56   ar
   106   156   155    2
   107   151   149   ar
   108   118   117    1
   109    55    53   ar
   110   155   154    1
   111   154   153    1
   112   117   119    1
   113   117   114    1
   114   150   148   ar
   115   153   144   am
   116   113   114    1
   117    56    54   ar
   118   149   147   ar
   119    53    54   ar
   120    53    52    1
   121   114   115    1
   122   148   147   ar
   123   147   146    1
   124    49    52    1
   125    49    50    1
   126    49    48    1
   127   115   116    2
   128   144   145    2
   129   144   143    1
   130    51    50    2
   131   143   146    1
   132   143   142    1
   133   141   140    2
   134   128   126    1
   135   142   140   am
   136   140   139    1
   137   127   125    1
   138   126   125    1
   139   125   122    1
   140   139   138    1
   141   132   131    2
   142   138   131   am
   143   124   123    2
   144   131   130    1
   145   122   123    1
   146   122   121    1
   147   123   129   am
   148   129   130    1
   149   130   133    1
   150   133   134    1
   151   134   135    1
   152   135   136    1
   153   136   137    1
