@<TRIPOS>MOLECULE
tmp/1i2dC00.pdb
 173 170 0 0 0
SMALL
GASTEIGER

@<TRIPOS>ATOM
      1  N         33.0180   71.7160   82.3260 N.3   195  PHE195     -0.1227
      2  CA        32.5380   73.0860   82.3290 C.3   195  PHE195      0.1736
      3  C         31.8410   73.3570   83.6650 C.2   195  PHE195      0.2595
      4  O         30.8660   72.7160   84.0280 O.2   195  PHE195     -0.2718
      5  CB        31.5390   73.2910   81.2010 C.3   195  PHE195      0.0547
      6  CG        31.0090   74.6790   81.1190 C.ar  195  PHE195     -0.0202
      7  CD1       31.8760   75.7450   80.8570 C.ar  195  PHE195     -0.0042
      8  CD2       29.6600   74.9340   81.3140 C.ar  195  PHE195     -0.0042
      9  CE1       31.4050   77.0530   80.7880 C.ar  195  PHE195     -0.0003
     10  CE2       29.1670   76.2410   81.2490 C.ar  195  PHE195     -0.0003
     11  CZ        30.0420   77.3080   80.9840 C.ar  195  PHE195     -0.0000
     12  N         32.3520   74.3150   84.4070 N.am  196  GLN196     -0.1965
     13  CA        31.7840   74.6620   85.7000 C.3   196  GLN196      0.1733
     14  C         30.7330   75.7180   85.4350 C.2   196  GLN196      0.2617
     15  O         30.8760   76.4900   84.4830 O.2   196  GLN196     -0.2715
     16  CB        32.9020   75.2490   86.5880 C.3   196  GLN196      0.0408
     17  CG        32.5220   76.4170   87.5060 C.3   196  GLN196      0.0908
     18  CD        31.6790   75.9780   88.6980 C.2   196  GLN196      0.2608
     19  OE1       31.7640   74.8360   89.1500 O.2   196  GLN196     -0.2717
     20  NE2       30.8770   76.8950   89.2260 N.am  196  GLN196     -0.0878
     21  N         29.6840   75.7590   86.2610 N.am  197  THR197     -0.1937
     22  CA        28.6590   76.7840   86.1150 C.3   197  THR197      0.2028
     23  C         27.6190   76.8100   87.2020 C.2   197  THR197      0.2642
     24  O         27.2710   75.7640   87.7700 O.2   197  THR197     -0.2714
     25  CB        27.9130   76.6710   84.7970 C.3   197  THR197      0.1808
     26  OG1       27.0530   77.8060   84.6500 O.3   197  THR197     -0.2208
     27  CG2       27.0780   75.4340   84.7630 C.3   197  THR197      0.0379
     28  N         27.1260   78.0190   87.4820 N.am  198  ARG198     -0.1963
     29  CA        26.0850   78.2210   88.4880 C.3   198  ARG198      0.1729
     30  C         24.9550   79.0660   87.9220 C.2   198  ARG198      0.2616
     31  O         24.1830   79.6900   88.6540 O.2   198  ARG198     -0.2715
     32  CB        26.6480   78.8910   89.7390 C.3   198  ARG198      0.0348
     33  CG        27.6060   80.0200   89.4690 C.3   198  ARG198      0.0492
     34  CD        27.7240   80.9150   90.6860 C.3   198  ARG198      0.2205
     35  NE        26.9880   82.1590   90.5010 N.pl3 198  ARG198     -0.0865
     36  CZ        27.3880   83.1570   89.7120 C.cat 198  ARG198      0.5346
     37  NH1       28.5330   83.0720   89.0290 N.pl3 198  ARG198      0.1354
     38  NH2       26.6310   84.2430   89.5870 N.pl3 198  ARG198      0.1354
     39  N         24.8710   79.0730   86.6010 N.am  199  ASN199     -0.1972
     40  CA        23.8320   79.8110   85.8990 C.3   199  ASN199      0.1688
     41  C         23.2590   79.0630   84.7400 C.2   199  ASN199      0.2292
     42  O         23.7990   78.0510   84.2900 O.2   199  ASN199     -0.2864
     43  CB        24.3560   81.1140   85.3300 C.3   199  ASN199      0.1181
     44  CG        24.3660   82.2040   86.3330 C.2   199  ASN199      0.2629
     45  OD1       23.4060   82.3800   87.0880 O.2   199  ASN199     -0.2716
     46  ND2       25.4450   82.9650   86.3520 N.am  199  ASN199     -0.0877
     47  N         26.1920   81.5950   74.1330 N.3   204  ALA204     -0.1231
     48  CA        27.6110   81.7930   74.3170 C.3   204  ALA204      0.1694
     49  C         28.2720   80.5730   74.9970 C.2   204  ALA204      0.2592
     50  O         29.3520   80.1190   74.5700 O.2   204  ALA204     -0.2718
     51  CB        27.8510   83.0730   75.1370 C.3   204  ALA204      0.0304
     52  N         27.6320   80.0130   76.0240 N.am  205  HIS205     -0.1976
     53  CA        28.2700   78.9070   76.7140 C.3   205  HIS205      0.1656
     54  C         28.2920   77.6500   75.9190 C.2   205  HIS205      0.2291
     55  O         29.2590   76.8700   75.9980 O.2   205  HIS205     -0.2864
     56  CB        27.6300   78.6980   78.0640 C.3   205  HIS205      0.0771
     57  CG        27.4490   79.9780   78.8220 C.ar  205  HIS205      0.0820
     58  ND1       26.3320   80.7750   78.6810 N.ar  205  HIS205     -0.2267
     59  CD2       28.2670   80.6290   79.6850 C.ar  205  HIS205      0.1154
     60  CE1       26.4650   81.8570   79.4250 C.ar  205  HIS205      0.1986
     61  NE2       27.6310   81.7940   80.0450 N.ar  205  HIS205     -0.2212
     62  N         31.4340   77.9980   73.9070 N.3   208  LEU208     -0.1245
     63  CA        32.7230   77.7830   74.5890 C.3   208  LEU208      0.1561
     64  C         33.0010   76.3180   74.5610 C.2   208  LEU208      0.2260
     65  O         34.0460   75.8620   74.0730 O.2   208  LEU208     -0.2867
     66  CB        32.6740   78.0990   76.0770 C.3   208  LEU208      0.0270
     67  CG        32.2090   79.4700   76.4550 C.3   208  LEU208      0.0019
     68  CD1       31.9970   79.5330   77.9280 C.3   208  LEU208      0.0001
     69  CD2       33.2360   80.4520   76.0010 C.3   208  LEU208      0.0001
     70  N         29.8780   76.3750   96.6580 N.3   264  MET264     -0.1245
     71  CA        30.7880   77.4350   96.2190 C.3   264  MET264      0.1570
     72  C         31.0400   78.4920   97.2800 C.2   264  MET264      0.2261
     73  O         30.2460   78.6680   98.2000 O.2   264  MET264     -0.2867
     74  CB        30.2430   78.1230   94.9550 C.3   264  MET264      0.0387
     75  CG        30.3310   77.2690   93.6870 C.3   264  MET264      0.0595
     76  SD        30.0050   78.2380   92.2190 S.3   264  MET264     -0.1393
     77  CE        28.3370   77.9990   92.2360 C.3   264  MET264      0.0692
     78  N         32.6360   81.4480   96.0590 N.3   266  MET266     -0.1245
     79  CA        32.7350   82.5880   95.1650 C.3   266  MET266      0.1570
     80  C         34.0810   83.1980   95.4760 C.2   266  MET266      0.2261
     81  O         34.2040   84.4130   95.6380 O.2   266  MET266     -0.2867
     82  CB        31.6310   83.6320   95.3920 C.3   266  MET266      0.0387
     83  CG        30.1840   83.1310   95.2160 C.3   266  MET266      0.0595
     84  SD        29.7300   82.3040   93.6590 S.3   266  MET266     -0.1393
     85  CE        30.4370   83.4530   92.4170 C.3   266  MET266      0.0692
     86  N         37.6260   74.1830   81.8740 N.3   288  ILE288     -0.1231
     87  CA        37.4670   75.5380   81.3710 C.3   288  ILE288      0.1692
     88  C         37.4390   76.6270   82.4280 C.2   288  ILE288      0.2592
     89  O         36.7250   76.5120   83.4180 O.2   288  ILE288     -0.2718
     90  CB        36.1530   75.6410   80.5350 C.3   288  ILE288      0.0266
     91  CG1       36.3150   74.8480   79.2400 C.3   288  ILE288      0.0019
     92  CG2       35.8010   77.0870   80.2200 C.3   288  ILE288      0.0020
     93  CD1       35.0230   74.6170   78.5280 C.3   288  ILE288      0.0001
     94  N         38.2440   77.6640   82.2150 N.am  289  VAL289     -0.1966
     95  CA        38.2310   78.8320   83.0740 C.3   289  VAL289      0.1727
     96  C         38.0840   80.0020   82.1010 C.2   289  VAL289      0.2617
     97  O         38.8910   80.1610   81.1610 O.2   289  VAL289     -0.2715
     98  CB        39.5110   79.0160   83.9020 C.3   289  VAL289      0.0290
     99  CG1       39.2980   80.1750   84.8940 C.3   289  VAL289      0.0023
    100  CG2       39.8390   77.7360   84.6440 C.3   289  VAL289      0.0023
    101  N         37.0260   80.7910   82.3040 N.am  290  GLY290     -0.1940
    102  CA        36.7680   81.9230   81.4380 C.3   290  GLY290      0.2014
    103  C         36.8300   83.2300   82.1870 C.2   290  GLY290      0.2639
    104  O         37.5520   83.3660   83.1840 O.2   290  GLY290     -0.2714
    105  N         36.0640   84.2000   81.7050 N.am  291  ARG291     -0.1963
    106  CA        36.0390   85.5020   82.3340 C.3   291  ARG291      0.1729
    107  C         35.3080   85.4600   83.6560 C.2   291  ARG291      0.2616
    108  O         34.1830   84.9500   83.7330 O.2   291  ARG291     -0.2715
    109  CB        35.3580   86.5350   81.4380 C.3   291  ARG291      0.0348
    110  CG        34.9320   87.7820   82.2240 C.3   291  ARG291      0.0492
    111  CD        34.0400   88.7010   81.4260 C.3   291  ARG291      0.2205
    112  NE        34.7810   89.8050   80.8380 N.pl3 291  ARG291     -0.0865
    113  CZ        35.0310   90.9520   81.4610 C.cat 291  ARG291      0.5346
    114  NH1       34.5920   91.1570   82.7060 N.pl3 291  ARG291      0.1354
    115  NH2       35.7270   91.8960   80.8330 N.pl3 291  ARG291      0.1354
    116  N         35.9580   86.0010   84.6880 N.am  292  ASP292     -0.1957
    117  CA        35.3690   86.0960   86.0190 C.3   292  ASP292      0.1840
    118  C         34.9800   84.8030   86.7030 C.2   292  ASP292      0.2622
    119  O         34.0400   84.7660   87.4960 O.2   292  ASP292     -0.2715
    120  CB        34.1440   87.0000   85.9570 C.3   292  ASP292      0.1450
    121  CG        34.4620   88.3990   86.3830 C.2   292  ASP292      0.3671
    122  OD1       34.8790   88.5440   87.5690 O.co2 292  ASP292     -0.2456
    123  OD2       34.3080   89.3240   85.5410 O.co2 292  ASP292     -0.2456
    124  N         35.7210   83.7510   86.4140 N.am  293  HIS293     -0.1959
    125  CA        35.4190   82.4630   86.9780 C.3   293  HIS293      0.1787
    126  C         35.2130   82.5830   88.4690 C.2   293  HIS293      0.2620
    127  O         35.9710   83.2450   89.1540 O.2   293  HIS293     -0.2715
    128  CB        36.5560   81.5030   86.6520 C.3   293  HIS293      0.0785
    129  CG        36.2630   80.0800   86.9980 C.ar  293  HIS293      0.0821
    130  ND1       36.1200   79.0990   86.0420 N.ar  293  HIS293     -0.2267
    131  CD2       36.1220   79.4640   88.1960 C.ar  293  HIS293      0.1154
    132  CE1       35.9090   77.9380   86.6350 C.ar  293  HIS293      0.1986
    133  NE2       35.9070   78.1310   87.9430 N.ar  293  HIS293     -0.2212
    134  N         34.1550   81.9560   88.9540 N.am  294  ALA294     -0.1977
    135  CA        33.8120   81.9570   90.3690 C.3   294  ALA294      0.1597
    136  C         33.8140   83.3400   91.0630 C.2   294  ALA294      0.2287
    137  O         33.8900   83.4280   92.2820 O.2   294  ALA294     -0.2864
    138  CB        34.7350   80.9650   91.1040 C.3   294  ALA294      0.0319
    139  N         39.4550   81.1020   78.0880 N.3   329  PHE329     -0.1227
    140  CA        38.5890   81.7840   77.1370 C.3   329  PHE329      0.1736
    141  C         38.4610   83.2030   77.5700 C.2   329  PHE329      0.2595
    142  O         38.4200   83.4820   78.7620 O.2   329  PHE329     -0.2718
    143  CB        37.1550   81.2230   77.1210 C.3   329  PHE329      0.0547
    144  CG        36.9800   80.0020   76.2670 C.ar  329  PHE329     -0.0202
    145  CD1       36.8960   78.7400   76.8510 C.ar  329  PHE329     -0.0042
    146  CD2       36.9320   80.1150   74.8750 C.ar  329  PHE329     -0.0042
    147  CE1       36.7750   77.6160   76.0740 C.ar  329  PHE329     -0.0003
    148  CE2       36.8110   79.0020   74.0870 C.ar  329  PHE329     -0.0003
    149  CZ        36.7330   77.7410   74.6830 C.ar  329  PHE329     -0.0000
    150  N         38.3940   84.0990   76.6030 N.am  330  GLN330     -0.1965
    151  CA        38.1710   85.4910   76.9100 C.3   330  GLN330      0.1733
    152  C         36.6790   85.6170   76.6870 C.2   330  GLN330      0.2616
    153  O         36.0490   84.7460   76.0630 O.2   330  GLN330     -0.2715
    154  CB        38.8890   86.4050   75.9280 C.3   330  GLN330      0.0408
    155  CG        40.3650   86.1870   75.8950 C.3   330  GLN330      0.0908
    156  CD        41.0040   86.5290   77.2110 C.2   330  GLN330      0.2608
    157  OE1       40.9190   87.6790   77.6610 O.2   330  GLN330     -0.2717
    158  NE2       41.6470   85.5390   77.8500 N.am  330  GLN330     -0.0878
    159  N         36.1140   86.6960   77.2050 N.am  331  MET331     -0.1963
    160  CA        34.7000   86.9620   77.0360 C.3   331  MET331      0.1736
    161  C         34.2830   86.5140   75.6400 C.2   331  MET331      0.2616
    162  O         34.9240   86.8670   74.6430 O.2   331  MET331     -0.2715
    163  CB        34.4540   88.4640   77.1620 C.3   331  MET331      0.0427
    164  CG        33.1210   88.9320   76.6140 C.3   331  MET331      0.0599
    165  SD        32.0160   89.2570   77.9520 S.3   331  MET331     -0.1393
    166  CE        32.1660   87.6540   78.9670 C.3   331  MET331      0.0692
    167  N         33.2240   85.7260   75.5560 N.am  332  VAL332     -0.1977
    168  CA        32.7570   85.3260   74.2470 C.3   332  VAL332      0.1596
    169  C         31.5300   86.1930   73.8700 C.2   332  VAL332      0.2287
    170  O         30.6550   86.4300   74.7230 O.2   332  VAL332     -0.2864
    171  CB        32.4430   83.8300   74.2600 C.3   332  VAL332      0.0276
    172  CG1       31.5790   83.4500   73.0870 C.3   332  VAL332      0.0022
    173  CG2       33.7440   83.0910   74.1900 C.3   332  VAL332      0.0022
@<TRIPOS>BOND
     1   172   171    1
     2   169   168    1
     3   169   170    2
     4    62    63    1
     5    65    64    2
     6   148   149   ar
     7   148   146   ar
     8    47    48    1
     9   173   171    1
    10   168   171    1
    11   168   167    1
    12    48    49    1
    13    48    51    1
    14    64    63    1
    15    50    49    2
    16    63    66    1
    17   162   161    2
    18   149   147   ar
    19   146   144   ar
    20    49    52   am
    21   167   161   am
    22   161   160    1
    23   155   154    1
    24   155   156    1
    25    54    55    2
    26    54    53    1
    27   154   151    1
    28    69    67    1
    29    52    53    1
    30   153   152    2
    31   147   145   ar
    32    66    67    1
    33   144   145   ar
    34   144   143    1
    35    67    68    1
    36   150   151    1
    37   150   141   am
    38   164   163    1
    39   164   165    1
    40   152   151    1
    41   152   159   am
    42    53    56    1
    43   160   163    1
    44   160   159    1
    45   143   140    1
    46   140   141    1
    47   140   139    1
    48   156   157    2
    49   156   158   am
    50   141   142    2
    51   165   166    1
    52    56    57    1
    53    93    91    1
    54    58    57   ar
    55    58    60   ar
    56    57    59   ar
    57    91    90    1
    58    60    61   ar
    59    59    61   ar
    60    92    90    1
    61    90    87    1
    62     9     7   ar
    63     9    11   ar
    64   115   113    1
    65   112   111    1
    66   112   113    2
    67     7     6   ar
    68    11    10   ar
    69     6     5    1
    70     6     8   ar
    71    97    96    2
    72     5     2    1
    73    10     8   ar
    74    87    86    1
    75    87    88    1
    76   111   110    1
    77   102   103    1
    78   102   101    1
    79   109   110    1
    80   109   106    1
    81   113   114    1
    82   105   103   am
    83   105   106    1
    84    96   101   am
    85    96    95    1
    86   103   104    2
    87    94    88   am
    88    94    95    1
    89     1     2    1
    90     2     3    1
    91   106   107    1
    92    88    89    2
    93    95    98    1
    94   107   108    2
    95   107   116   am
    96     3     4    2
    97     3    12   am
    98    98   100    1
    99    98    99    1
   100    42    41    2
   101    12    13    1
   102    15    14    2
   103    26    25    1
   104   116   117    1
   105    41    40    1
   106    27    25    1
   107    25    22    1
   108    43    40    1
   109    43    44    1
   110    14    13    1
   111    14    21   am
   112   123   121   ar
   113    13    16    1
   114    40    39    1
   115   120   117    1
   116   120   121    1
   117   117   118    1
   118   130   132   ar
   119   130   129   ar
   120    22    21    1
   121    22    23    1
   122    44    46   am
   123    44    45    2
   124   121   122   ar
   125   124   118   am
   126   124   125    1
   127    16    17    1
   128    39    30   am
   129   132   133   ar
   130   128   125    1
   131   128   129    1
   132   118   119    2
   133   125   126    1
   134   129   131   ar
   135    23    28   am
   136    23    24    2
   137    28    29    1
   138    17    18    1
   139    30    29    1
   140    30    31    2
   141   133   131   ar
   142   126   134   am
   143   126   127    2
   144    29    32    1
   145    18    19    2
   146    18    20   am
   147   134   135    1
   148    37    36    1
   149    33    32    1
   150    33    34    1
   151    38    36    1
   152    36    35    2
   153   135   136    1
   154   135   138    1
   155    35    34    1
   156   136   137    2
   157    76    77    1
   158    76    75    1
   159    85    84    1
   160    84    83    1
   161    75    74    1
   162    74    71    1
   163    79    82    1
   164    79    80    1
   165    79    78    1
   166    83    82    1
   167    80    81    2
   168    71    70    1
   169    71    72    1
   170    72    73    2
