@<TRIPOS>MOLECULE
tmp/1i2lA00.pdb
 168 158 0 0 0
SMALL
GASTEIGER

@<TRIPOS>ATOM
      1  N         22.7050   10.1940   14.2860 N.3    26  PHE26      -0.1241
      2  CA        21.9670   11.0620   13.3940 C.3    26  PHE26       0.1605
      3  C         21.5720   12.3470   14.0660 C.2    26  PHE26       0.2264
      4  O         21.7400   12.5320   15.2630 O.2    26  PHE26      -0.2867
      5  CB        20.6860   10.3680   12.8820 C.3    26  PHE26       0.0534
      6  CG        19.6290   10.1450   13.9430 C.ar   26  PHE26      -0.0203
      7  CD1       19.7810    9.1540   14.9060 C.ar   26  PHE26      -0.0042
      8  CD2       18.4520   10.9070   13.9480 C.ar   26  PHE26      -0.0042
      9  CE1       18.7760    8.9160   15.8600 C.ar   26  PHE26      -0.0003
     10  CE2       17.4460   10.6810   14.8880 C.ar   26  PHE26      -0.0003
     11  CZ        17.6080    9.6860   15.8430 C.ar   26  PHE26      -0.0000
     12  N         18.5220   15.6960   13.5110 N.3    28  THR28      -0.1218
     13  CA        17.3430   16.1750   12.8240 C.3    28  THR28       0.1862
     14  C         17.2900   17.6800   13.0760 C.2    28  THR28       0.2287
     15  O         17.0900   18.1190   14.2110 O.2    28  THR28      -0.2866
     16  CB        16.0960   15.4880   13.3990 C.3    28  THR28       0.1770
     17  OG1       16.1790   14.0830   13.1330 O.3    28  THR28      -0.2211
     18  CG2       14.8380   16.0370   12.7710 C.3    28  THR28       0.0375
     19  N         27.4570   18.1220   17.2990 N.3    45  ARG45      -0.1245
     20  CA        26.9220   16.9450   17.9690 C.3    45  ARG45       0.1563
     21  C         27.1390   15.6580   17.1740 C.2    45  ARG45       0.2260
     22  O         27.3280   14.5980   17.7640 O.2    45  ARG45      -0.2867
     23  CB        25.4360   17.1340   18.3230 C.3    45  ARG45       0.0307
     24  CG        24.4570   17.2060   17.1620 C.3    45  ARG45       0.0489
     25  CD        23.7910   15.8710   16.8840 C.3    45  ARG45       0.2205
     26  NE        22.3330   15.9780   16.8020 N.pl3  45  ARG45      -0.0865
     27  CZ        21.5000   15.9090   17.8400 C.cat  45  ARG45       0.5346
     28  NH1       21.9640   15.7290   19.0720 N.pl3  45  ARG45       0.1354
     29  NH2       20.1900   16.0180   17.6430 N.pl3  45  ARG45       0.1354
     30  N          2.8300   19.6930   14.4260 N.3   113  TYR113     -0.1241
     31  CA         3.6050   20.5150   15.3520 C.3   113  TYR113      0.1605
     32  C          2.9750   21.8720   15.6370 C.2   113  TYR113      0.2264
     33  O          2.8710   22.2850   16.7940 O.2   113  TYR113     -0.2867
     34  CB         5.0370   20.7250   14.8390 C.3   113  TYR113      0.0534
     35  CG         6.0290   19.7190   15.3810 C.ar  113  TYR113     -0.0201
     36  CD1        5.7380   18.9620   16.5210 C.ar  113  TYR113     -0.0009
     37  CD2        7.2620   19.5310   14.7660 C.ar  113  TYR113     -0.0009
     38  CE1        6.6540   18.0420   17.0300 C.ar  113  TYR113      0.0417
     39  CE2        8.1900   18.6110   15.2690 C.ar  113  TYR113      0.0417
     40  CZ         7.8810   17.8710   16.3980 C.ar  113  TYR113      0.1957
     41  OH         8.7880   16.9520   16.8810 O.3   113  TYR113     -0.2866
     42  N         22.9310   10.8630   20.0520 N.3   140  LYS140     -0.1245
     43  CA        21.7640   10.6100   19.2310 C.3   140  LYS140      0.1561
     44  C         22.1400    9.4810   18.2600 C.2   140  LYS140      0.2260
     45  O         22.2030    9.6620   17.0540 O.2   140  LYS140     -0.2867
     46  CB        21.3670   11.8790   18.4890 C.3   140  LYS140      0.0271
     47  CG        19.9480   11.8590   17.9420 C.3   140  LYS140      0.0035
     48  CD        19.6660   13.1790   17.2320 C.3   140  LYS140      0.0206
     49  CE        18.2940   13.7360   17.5430 C.3   140  LYS140      0.1093
     50  NZ        17.4560   13.8720   16.1520 N.3   140  LYS140     -0.1314
     51  N         17.2690    3.2770   18.4030 N.3   144  ARG144     -0.1245
     52  CA        16.1210    3.9550   18.9570 C.3   144  ARG144      0.1563
     53  C         14.8710    3.0830   19.1230 C.2   144  ARG144      0.2260
     54  O         13.7410    3.5720   19.0690 O.2   144  ARG144     -0.2867
     55  CB        15.8440    5.1860   18.1110 C.3   144  ARG144      0.0307
     56  CG        17.0830    6.0770   17.9250 C.3   144  ARG144      0.0489
     57  CD        17.1670    7.2420   18.9030 C.3   144  ARG144      0.2205
     58  NE        17.4220    6.8610   20.2920 N.pl3 144  ARG144     -0.0865
     59  CZ        18.5300    7.1610   20.9710 C.cat 144  ARG144      0.5346
     60  NH1       19.5130    7.8410   20.3970 N.pl3 144  ARG144      0.1354
     61  NH2       18.6450    6.8150   22.2400 N.pl3 144  ARG144      0.1354
     62  N         12.7770    4.2170   21.8330 N.3   147  GLN147     -0.1245
     63  CA        11.8970    5.3000   21.4130 C.3   147  GLN147      0.1566
     64  C         10.7080    4.7920   20.5870 C.2   147  GLN147      0.2260
     65  O          9.6110    5.3210   20.6840 O.2   147  GLN147     -0.2867
     66  CB        12.6750    6.3480   20.6190 C.3   147  GLN147      0.0367
     67  CG        13.5370    7.2550   21.4690 C.3   147  GLN147      0.0905
     68  CD        14.6330    6.5040   22.2130 C.2   147  GLN147      0.2608
     69  OE1       15.4400    5.7850   21.6120 O.2   147  GLN147     -0.2717
     70  NE2       14.6680    6.6760   23.5270 N.am  147  GLN147     -0.0878
     71  N         13.5480   12.0510   29.9060 N.3   173  GLU173     -0.1245
     72  CA        13.1360   12.8760   28.7710 C.3   173  GLU173      0.1567
     73  C         11.7460   12.4910   28.2850 C.2   173  GLU173      0.2260
     74  O         10.9240   11.9780   29.0360 O.2   173  GLU173     -0.2867
     75  CB        14.1230   12.7040   27.6150 C.3   173  GLU173      0.0388
     76  CG        14.1920   11.2890   27.0990 C.3   173  GLU173      0.1160
     77  CD        15.3600   11.0410   26.1510 C.2   173  GLU173      0.3649
     78  OE1       16.1060   11.9960   25.8350 O.co2 173  GLU173     -0.2457
     79  OE2       15.5340    9.8800   25.7170 O.co2 173  GLU173     -0.2457
     80  N          9.6310   11.1150   24.4370 N.3   175  CYS175     -0.1221
     81  CA         9.8800   10.1630   23.3750 C.3   175  CYS175      0.1808
     82  C         10.8610   10.7400   22.3720 C.2   175  CYS175      0.2601
     83  O         11.8470   10.0880   22.0090 O.2   175  CYS175     -0.2717
     84  CB         8.5850    9.7760   22.6560 C.3   175  CYS175      0.0970
     85  SG         8.8040    8.3890   21.4900 S.3   175  CYS175     -0.0800
     86  N         10.6090   11.9680   21.9370 N.am  176  ALA176     -0.1965
     87  CA        11.4840   12.5910   20.9460 C.3   176  ALA176      0.1728
     88  C         11.7890   14.0480   21.3060 C.2   176  ALA176      0.2616
     89  O         11.9110   14.9140   20.4380 O.2   176  ALA176     -0.2715
     90  CB        10.8260   12.5020   19.5460 C.3   176  ALA176      0.0334
     91  N         11.9280   14.3030   22.5980 N.am  177  ALA177     -0.1963
     92  CA        12.1880   15.6430   23.0700 C.3   177  ALA177      0.1728
     93  C         12.7720   15.5870   24.4630 C.2   177  ALA177      0.2616
     94  O         12.6550   14.5850   25.1550 O.2   177  ALA177     -0.2715
     95  CB        10.8880   16.4450   23.0940 C.3   177  ALA177      0.0334
     96  N         13.3980   16.6860   24.8590 N.am  178  ASN178     -0.1972
     97  CA        13.9670   16.7990   26.1740 C.3   178  ASN178      0.1688
     98  C         12.9890   17.5690   27.0140 C.2   178  ASN178      0.2292
     99  O         12.1050   18.2500   26.5010 O.2   178  ASN178     -0.2864
    100  CB        15.3360   17.4650   26.0990 C.3   178  ASN178      0.1181
    101  CG        16.3530   16.5510   25.4620 C.2   178  ASN178      0.2629
    102  OD1       16.9040   16.8420   24.4020 O.2   178  ASN178     -0.2716
    103  ND2       16.5780   15.4100   26.0930 N.am  178  ASN178     -0.0877
    104  N         18.7040   11.4690   25.2740 N.3   197  VAL197     -0.1245
    105  CA        19.4650   12.1160   24.2190 C.3   197  VAL197      0.1561
    106  C         19.7300   13.5750   24.5810 C.2   197  VAL197      0.2260
    107  O         18.8030   14.3190   24.8880 O.2   197  VAL197     -0.2867
    108  CB        18.7060   12.0760   22.8580 C.3   197  VAL197      0.0252
    109  CG1       19.4350   12.9520   21.8440 C.3   197  VAL197      0.0019
    110  CG2       18.6080   10.6450   22.3350 C.3   197  VAL197      0.0019
    111  N         19.8380   16.6360   23.5010 N.3   199  GLY199     -0.1210
    112  CA        19.4280   17.3600   22.3220 C.3   199  GLY199      0.1956
    113  C         20.0790   18.6910   22.0500 C.2   199  GLY199      0.2612
    114  O         20.6510   19.3190   22.9260 O.2   199  GLY199     -0.2717
    115  N         20.0030   19.0880   20.7900 N.am  200  ILE200     -0.1965
    116  CA        20.5130   20.3550   20.3190 C.3   200  ILE200      0.1727
    117  C         19.6980   21.4960   20.9480 C.2   200  ILE200      0.2616
    118  O         20.2590   22.5200   21.3160 O.2   200  ILE200     -0.2715
    119  CB        20.3970   20.4150   18.7650 C.3   200  ILE200      0.0290
    120  CG1       21.5270   19.5930   18.1400 C.3   200  ILE200      0.0022
    121  CG2       20.3810   21.8460   18.2770 C.3   200  ILE200      0.0023
    122  CD1       22.9060   20.0650   18.5230 C.3   200  ILE200      0.0001
    123  N         18.3810   21.3230   21.0670 N.am  201  MET201     -0.1963
    124  CA        17.5330   22.3720   21.6420 C.3   201  MET201      0.1736
    125  C         17.7220   22.4460   23.1520 C.2   201  MET201      0.2616
    126  O         17.6300   23.5130   23.7410 O.2   201  MET201     -0.2715
    127  CB        16.0490   22.1310   21.3120 C.3   201  MET201      0.0427
    128  CG        15.1660   23.3470   21.5370 C.3   201  MET201      0.0599
    129  SD        15.8930   24.9180   20.9100 S.3   201  MET201     -0.1393
    130  CE        15.8140   24.7230   19.1330 C.3   201  MET201      0.0692
    131  N         17.9820   21.3000   23.7700 N.am  202  ARG202     -0.1977
    132  CA        18.2190   21.2310   25.2070 C.3   202  ARG202      0.1597
    133  C         19.5060   22.0030   25.5040 C.2   202  ARG202      0.2287
    134  O         19.5560   22.8160   26.4180 O.2   202  ARG202     -0.2864
    135  CB        18.3740   19.7780   25.6400 C.3   202  ARG202      0.0334
    136  CG        18.9830   19.6030   27.0290 C.3   202  ARG202      0.0492
    137  CD        19.2150   18.1260   27.3290 C.3   202  ARG202      0.2205
    138  NE        19.5910   17.8690   28.7180 N.pl3 202  ARG202     -0.0865
    139  CZ        20.8240   17.9850   29.2100 C.cat 202  ARG202      0.5346
    140  NH1       21.8260   18.3630   28.4400 N.pl3 202  ARG202      0.1354
    141  NH2       21.0580   17.6900   30.4760 N.pl3 202  ARG202      0.1354
    142  N         11.3140   20.0990   24.5720 N.3   235  CYS235     -0.1221
    143  CA        11.9800   20.6480   23.3940 C.3   235  CYS235      0.1808
    144  C         12.7300   19.6880   22.4780 C.2   235  CYS235      0.2601
    145  O         13.1620   18.6140   22.8830 O.2   235  CYS235     -0.2717
    146  CB        12.9830   21.7080   23.8370 C.3   235  CYS235      0.0970
    147  SG        14.3900   21.0190   24.7870 S.3   235  CYS235     -0.0800
    148  N         12.8480   20.0960   21.2200 N.am  236  ASN236     -0.1960
    149  CA        13.6400   19.3850   20.2210 C.3   236  ASN236      0.1819
    150  C         13.9220   20.3980   19.1160 C.2   236  ASN236      0.2621
    151  O         13.3140   21.4780   19.0850 O.2   236  ASN236     -0.2715
    152  CB        12.9730   18.1050   19.6910 C.3   236  ASN236      0.1195
    153  CG        11.8060   18.3600   18.7800 C.2   236  ASN236      0.2630
    154  OD1       11.6820   19.4140   18.1680 O.2   236  ASN236     -0.2716
    155  ND2       10.9470   17.3650   18.6630 N.am  236  ASN236     -0.0877
    156  N         14.8490   20.0700   18.2260 N.am  237  ALA237     -0.1963
    157  CA        15.2250   20.9970   17.1660 C.3   237  ALA237      0.1728
    158  C         14.0810   21.5120   16.3010 C.2   237  ALA237      0.2616
    159  O         14.1490   22.6200   15.7780 O.2   237  ALA237     -0.2715
    160  CB        16.2950   20.3590   16.2800 C.3   237  ALA237      0.0334
    161  N         13.0240   20.7230   16.1680 N.am  238  LEU238     -0.1977
    162  CA        11.9060   21.0920   15.3030 C.3   238  LEU238      0.1596
    163  C         10.7180   21.8210   15.9150 C.2   238  LEU238      0.2287
    164  O         10.0070   22.5110   15.1990 O.2   238  LEU238     -0.2864
    165  CB        11.3670   19.8420   14.6050 C.3   238  LEU238      0.0297
    166  CG        12.4020   18.9650   13.9040 C.3   238  LEU238      0.0022
    167  CD1       11.6910   17.7820   13.2960 C.3   238  LEU238      0.0001
    168  CD2       13.1490   19.7700   12.8320 C.3   238  LEU238      0.0001
@<TRIPOS>BOND
     1    18    16    1
     2    13    14    1
     3    13    16    1
     4    13    12    1
     5   168   166    1
     6     5     2    1
     7     5     6    1
     8    14    15    2
     9    17    16    1
    10   167   166    1
    11     2     3    1
    12     2     1    1
    13   166   165    1
    14     6     8   ar
    15     6     7   ar
    16     8    10   ar
    17     3     4    2
    18    30    31    1
    19   165   162    1
    20    37    39   ar
    21    37    35   ar
    22    34    31    1
    23    34    35    1
    24    10    11   ar
    25     7     9   ar
    26   164   163    2
    27    39    40   ar
    28   162   163    1
    29   162   161    1
    30    31    32    1
    31    35    36   ar
    32    32    33    2
    33   159   158    2
    34    11     9   ar
    35    50    49    1
    36   161   158   am
    37   160   157    1
    38   158   157    1
    39    40    41    1
    40    40    38   ar
    41    36    38   ar
    42    26    25    1
    43    26    27    2
    44    25    24    1
    45    45    44    2
    46    24    23    1
    47   157   156    1
    48    21    22    2
    49    21    20    1
    50    48    49    1
    51    48    47    1
    52    19    20    1
    53    29    27    1
    54    27    28    1
    55    56    55    1
    56    56    57    1
    57    47    46    1
    58    20    23    1
    59    55    52    1
    60   120   122    1
    61   120   119    1
    62   154   153    2
    63   156   150   am
    64    44    43    1
    65   121   119    1
    66    51    52    1
    67    46    43    1
    68   155   153   am
    69   119   116    1
    70   153   152    1
    71    57    58    1
    72    52    53    1
    73    54    53    2
    74   151   150    2
    75   150   149    1
    76   130   129    1
    77    43    42    1
    78    90    87    1
    79   152   149    1
    80   149   148    1
    81    58    59    2
    82   116   115    1
    83   116   117    1
    84    60    59    1
    85    89    88    2
    86    64    65    2
    87    64    63    1
    88    66    63    1
    89    66    67    1
    90   115   113   am
    91   129   128    1
    92    87    88    1
    93    87    86    1
    94   117   123   am
    95   117   118    2
    96    59    61    1
    97   123   124    1
    98   148   144   am
    99    88    91   am
   100   127   128    1
   101   127   124    1
   102    63    62    1
   103    67    68    1
   104    85    84    1
   105    69    68    2
   106   124   125    1
   107   109   108    1
   108    86    82   am
   109    83    82    2
   110   113   112    1
   111   113   114    2
   112    68    70   am
   113   112   111    1
   114   110   108    1
   115    82    81    1
   116   144   145    2
   117   144   143    1
   118    91    92    1
   119    84    81    1
   120   108   105    1
   121    92    95    1
   122    92    93    1
   123   125   126    2
   124   125   131   am
   125    81    80    1
   126   143   146    1
   127   143   142    1
   128   131   132    1
   129   146   147    1
   130   105   106    1
   131   105   104    1
   132   102   101    2
   133    93    96   am
   134    93    94    2
   135   106   107    2
   136    96    97    1
   137   132   133    1
   138   132   135    1
   139   101   103   am
   140   101   100    1
   141   133   134    2
   142   135   136    1
   143    79    77   ar
   144    78    77   ar
   145   100    97    1
   146    77    76    1
   147    97    98    1
   148    99    98    2
   149   136   137    1
   150    76    75    1
   151   137   138    1
   152    75    72    1
   153    73    72    1
   154    73    74    2
   155   140   139    1
   156   138   139    2
   157    72    71    1
   158   139   141    1
