@<TRIPOS>MOLECULE
tmp/1i2wA00.pdb
 145 137 0 0 0
SMALL
GASTEIGER

@<TRIPOS>ATOM
      1  N         24.7140    3.6630   15.0030 N.3    38  ALA38      -0.1231
      2  CA        24.6350    2.3590   14.3530 C.3    38  ALA38       0.1694
      3  C         23.3360    1.6020   14.7170 C.2    38  ALA38       0.2592
      4  O         22.2640    2.1980   14.7490 O.2    38  ALA38      -0.2718
      5  CB        25.8800    1.5190   14.7050 C.3    38  ALA38       0.0304
      6  N         23.4370    0.3080   14.9980 N.am   39  SER39      -0.1952
      7  CA        22.2710   -0.5210   15.3160 C.3    39  SER39       0.1924
      8  C         21.5430   -0.2280   16.6180 C.2    39  SER39       0.2314
      9  O         20.4520   -0.7470   16.8230 O.2    39  SER39      -0.2863
     10  CB        22.6520   -1.9980   15.3280 C.3    39  SER39       0.2116
     11  OG        22.9040   -2.4360   14.0180 O.3    39  SER39      -0.2180
     12  N         17.9610    0.7750   16.6820 N.3    42  LYS42      -0.1245
     13  CA        16.8970   -0.2110   16.4970 C.3    42  LYS42       0.1561
     14  C         16.0250   -0.3560   17.7500 C.2    42  LYS42       0.2260
     15  O         14.8160   -0.5940   17.6540 O.2    42  LYS42      -0.2867
     16  CB        17.4960   -1.5620   16.0890 C.3    42  LYS42       0.0271
     17  CG        18.0670   -1.5020   14.7010 C.3    42  LYS42       0.0035
     18  CD        18.7840   -2.7560   14.2730 C.3    42  LYS42       0.0206
     19  CE        19.3550   -2.5440   12.8790 C.3    42  LYS42       0.1093
     20  NZ        20.4140   -3.5120   12.5980 N.3    42  LYS42      -0.1314
     21  N         21.8200   -5.1490    3.1670 N.3    71  ASN71      -0.1225
     22  CA        23.0600   -5.8650    3.4610 C.3    71  ASN71       0.1785
     23  C         23.0660   -7.0090    4.4720 C.2    71  ASN71       0.2597
     24  O         23.7200   -8.0240    4.2350 O.2    71  ASN71      -0.2718
     25  CB        24.1430   -4.8580    3.8530 C.3    71  ASN71       0.1169
     26  CG        23.8450   -4.1620    5.1590 C.2    71  ASN71       0.2627
     27  OD1       22.7790   -3.5780    5.3350 O.2    71  ASN71      -0.2716
     28  ND2       24.7910   -4.2210    6.0880 N.am   71  ASN71      -0.0877
     29  N         22.3680   -6.8570    5.5960 N.am   72  TYR72      -0.1976
     30  CA        22.3530   -7.9050    6.6230 C.3    72  TYR72       0.1639
     31  C         20.9250   -8.2090    7.0520 C.2    72  TYR72       0.2290
     32  O         20.3310   -7.4600    7.8170 O.2    72  TYR72      -0.2864
     33  CB        23.1710   -7.4580    7.8410 C.3    72  TYR72       0.0560
     34  CG        23.2920   -8.5220    8.9110 C.ar   72  TYR72      -0.0198
     35  CD1       23.9470   -9.7290    8.6500 C.ar   72  TYR72      -0.0009
     36  CD2       22.7420   -8.3330   10.1820 C.ar   72  TYR72      -0.0009
     37  CE1       24.0510  -10.7230    9.6250 C.ar   72  TYR72       0.0417
     38  CE2       22.8420   -9.3210   11.1650 C.ar   72  TYR72       0.0417
     39  CZ        23.4970  -10.5110   10.8780 C.ar   72  TYR72       0.1957
     40  OH        23.6060  -11.4920   11.8380 O.3    72  TYR72      -0.2866
     41  N         19.7130   -7.9760   15.0260 N.3    97  SER97      -0.1217
     42  CA        20.1500   -6.7560   14.3590 C.3    97  SER97       0.1889
     43  C         19.8070   -6.7510   12.8660 C.2    97  SER97       0.2288
     44  O         20.5060   -6.1430   12.0610 O.2    97  SER97      -0.2866
     45  CB        21.6560   -6.5440   14.5590 C.3    97  SER97       0.2089
     46  OG        21.9440   -5.1680   14.7250 O.3    97  SER97      -0.2183
     47  N         18.7470   -5.7900    9.4680 N.3    99  ASN99      -0.1240
     48  CA        18.6500   -4.4710    8.8410 C.3    99  ASN99       0.1653
     49  C         17.3540   -4.2060    8.0740 C.2    99  ASN99       0.2266
     50  O         16.8370   -3.0900    8.0920 O.2    99  ASN99      -0.2867
     51  CB        19.8460   -4.2540    7.9110 C.3    99  ASN99       0.1155
     52  CG        20.9830   -3.5140    8.5870 C.2    99  ASN99       0.2627
     53  OD1       20.8760   -3.1180    9.7450 O.2    99  ASN99      -0.2716
     54  ND2       22.0810   -3.3210    7.8620 N.am   99  ASN99      -0.0877
     55  N         18.8750    1.7980    6.9590 N.3   133  GLU133     -0.1231
     56  CA        20.0300    0.9200    7.0240 C.3   133  GLU133      0.1684
     57  C         20.2890    0.5080    5.5830 C.2   133  GLU133      0.2434
     58  O         19.3470    0.2910    4.8260 O.2   133  GLU133     -0.2733
     59  CB        19.7110   -0.3280    7.8460 C.3   133  GLU133      0.0402
     60  CG        19.7120   -0.0920    9.3360 C.3   133  GLU133      0.1161
     61  CD        21.1010   -0.1860    9.9510 C.2   133  GLU133      0.3649
     62  OE1       21.1780   -0.2520   11.1960 O.co2 133  GLU133     -0.2457
     63  OE2       22.1090   -0.1920    9.2010 O.co2 133  GLU133     -0.2457
     64  N         21.5630    0.3790    5.1840 N.am  134  PRO134     -0.2729
     65  CA        22.7810    0.5890    5.9640 C.3   134  PRO134      0.1401
     66  C         23.4090    1.9540    5.7550 C.2   134  PRO134      0.2269
     67  O         24.5050    2.1910    6.2470 O.2   134  PRO134     -0.2865
     68  CB        23.7020   -0.5170    5.4670 C.3   134  PRO134      0.0296
     69  CG        23.2900   -0.7020    4.0130 C.3   134  PRO134      0.0237
     70  CD        21.8890   -0.1160    3.8360 C.3   134  PRO134      0.0939
     71  N         22.9060    4.6900    7.1150 N.3   136  LEU136     -0.1231
     72  CA        23.1400    5.4160    8.3690 C.3   136  LEU136      0.1693
     73  C         24.5720    5.1790    8.8750 C.2   136  LEU136      0.2592
     74  O         25.0500    5.8590    9.7790 O.2   136  LEU136     -0.2718
     75  CB        22.1190    4.9900    9.4490 C.3   136  LEU136      0.0284
     76  CG        22.0590    3.5310    9.9300 C.3   136  LEU136      0.0019
     77  CD1       23.1190    3.2540   10.9880 C.3   136  LEU136      0.0001
     78  CD2       20.6730    3.2520   10.4970 C.3   136  LEU136      0.0001
     79  N         25.2470    4.2060    8.2750 N.am  137  ASN137     -0.1974
     80  CA        26.6180    3.8810    8.6370 C.3   137  ASN137      0.1688
     81  C         27.5860    4.8530    7.9700 C.2   137  ASN137      0.2292
     82  O         28.7420    4.9520    8.3590 O.2   137  ASN137     -0.2864
     83  CB        26.9540    2.4560    8.2010 C.3   137  ASN137      0.1181
     84  CG        28.2770    1.9780    8.7590 C.2   137  ASN137      0.2629
     85  OD1       28.6530    2.3370    9.8740 O.2   137  ASN137     -0.2716
     86  ND2       28.9910    1.1630    7.9880 N.am  137  ASN137     -0.0877
     87  N         23.2670  -11.0500   20.2330 N.3   183  THR183     -0.1218
     88  CA        24.5310  -10.4610   19.7860 C.3   183  THR183      0.1862
     89  C         25.4220   -9.7270   20.7980 C.2   183  THR183      0.2287
     90  O         26.4530   -9.1830   20.4080 O.2   183  THR183     -0.2866
     91  CB        24.2710   -9.4630   18.6260 C.3   183  THR183      0.1770
     92  OG1       23.6290   -8.2920   19.1440 O.3   183  THR183     -0.2211
     93  CG2       23.3760  -10.0860   17.5590 C.3   183  THR183      0.0375
     94  N         21.1490   -3.6880   23.4460 N.3   201  LYS201     -0.1231
     95  CA        21.1530   -3.6050   22.0000 C.3   201  LYS201      0.1693
     96  C         22.5370   -3.0760   21.6100 C.2   201  LYS201      0.2593
     97  O         22.9370   -1.9710   21.9740 O.2   201  LYS201     -0.2718
     98  CB        20.0580   -2.6850   21.4520 C.3   201  LYS201      0.0285
     99  CG        20.0280   -2.6320   19.9050 C.3   201  LYS201      0.0035
    100  CD        19.7250   -4.0060   19.3010 C.3   201  LYS201      0.0206
    101  CE        20.0690   -4.0850   17.8170 C.3   201  LYS201      0.1093
    102  NZ        21.4240   -4.6670   17.5550 N.3   201  LYS201     -0.1314
    103  N         23.2500   -3.9110   20.8680 N.am  202  THR202     -0.1939
    104  CA        24.5950   -3.6350   20.3850 C.3   202  THR202      0.2028
    105  C         24.5880   -2.9080   19.0440 C.2   202  THR202      0.2643
    106  O         23.5590   -2.8100   18.3690 O.2   202  THR202     -0.2714
    107  CB        25.3720   -4.9540   20.1930 C.3   202  THR202      0.1808
    108  OG1       24.6760   -5.7730   19.2390 O.3   202  THR202     -0.2208
    109  CG2       25.4890   -5.7160   21.5180 C.3   202  THR202      0.0379
    110  N         25.7530   -2.4070   18.6550 N.am  203  GLY203     -0.1939
    111  CA        25.8710   -1.7270   17.3830 C.3   203  GLY203      0.2014
    112  C         27.3290   -1.6960   16.9780 C.2   203  GLY203      0.2639
    113  O         28.2020   -1.8160   17.8320 O.2   203  GLY203     -0.2714
    114  N         27.5890   -1.5620   15.6820 N.am  204  ALA204     -0.1963
    115  CA        28.9520   -1.4710   15.1590 C.3   204  ALA204      0.1728
    116  C         28.8740   -0.7180   13.8400 C.2   204  ALA204      0.2616
    117  O         27.8330   -0.7090   13.1840 O.2   204  ALA204     -0.2715
    118  CB        29.5550   -2.8600   14.9510 C.3   204  ALA204      0.0334
    119  N         29.9600   -0.0690   13.4500 N.am  205  GLY205     -0.1955
    120  CA        29.9250    0.6660   12.2030 C.3   205  GLY205      0.1869
    121  C         31.3040    1.0750   11.7480 C.2   205  GLY205      0.2309
    122  O         32.3040    0.5220   12.2160 O.2   205  GLY205     -0.2863
    123  N         31.8320    0.7980   17.9670 N.3   210  ARG210     -0.1245
    124  CA        31.3270   -0.3800   18.6650 C.3   210  ARG210      0.1563
    125  C         30.5500    0.1210   19.8750 C.2   210  ARG210      0.2260
    126  O         31.1310    0.6870   20.8160 O.2   210  ARG210     -0.2867
    127  CB        32.4800   -1.2880   19.1060 C.3   210  ARG210      0.0307
    128  CG        32.0500   -2.6630   19.5640 C.3   210  ARG210      0.0489
    129  CD        31.0390   -3.2860   18.6140 C.3   210  ARG210      0.2205
    130  NE        30.9320   -4.7180   18.8360 N.pl3 210  ARG210     -0.0865
    131  CZ        29.8670   -5.4520   18.5430 C.cat 210  ARG210      0.5346
    132  NH1       28.7890   -4.8980   18.0060 N.pl3 210  ARG210      0.1354
    133  NH2       29.8870   -6.7470   18.7920 N.pl3 210  ARG210      0.1354
    134  N         37.2680   -3.0500   15.5320 N.3   239  TYR239     -0.1241
    135  CA        36.9650   -2.8030   16.9310 C.3   239  TYR239      0.1605
    136  C         37.2880   -4.0580   17.7310 C.2   239  TYR239      0.2264
    137  O         37.5330   -5.1280   17.1710 O.2   239  TYR239     -0.2867
    138  CB        35.4840   -2.4130   17.1130 C.3   239  TYR239      0.0534
    139  CG        34.4950   -3.4150   16.5570 C.ar  239  TYR239     -0.0201
    140  CD1       34.2150   -4.6020   17.2350 C.ar  239  TYR239     -0.0009
    141  CD2       33.8520   -3.1850   15.3420 C.ar  239  TYR239     -0.0009
    142  CE1       33.3180   -5.5390   16.7150 C.ar  239  TYR239      0.0417
    143  CE2       32.9510   -4.1130   14.8130 C.ar  239  TYR239      0.0417
    144  CZ        32.6890   -5.2840   15.5020 C.ar  239  TYR239      0.1957
    145  OH        31.7930   -6.1960   14.9910 O.3   239  TYR239     -0.2866
@<TRIPOS>BOND
     1    21    22    1
     2    22    25    1
     3    22    23    1
     4    70    69    1
     5    70    64    1
     6    25    26    1
     7    69    68    1
     8    24    23    2
     9    23    29   am
    10    58    57    2
    11    26    27    2
    12    26    28   am
    13    64    57   am
    14    64    65    1
    15    68    65    1
    16    57    56    1
    17    29    30    1
    18    66    65    1
    19    66    67    2
    20    30    31    1
    21    30    33    1
    22    55    56    1
    23    56    59    1
    24    31    32    2
    25    71    72    1
    26    33    34    1
    27    59    60    1
    28    54    52   am
    29    51    52    1
    30    51    48    1
    31    81    82    2
    32    81    80    1
    33    86    84   am
    34    49    50    2
    35    49    48    1
    36    83    80    1
    37    83    84    1
    38    79    80    1
    39    79    73   am
    40    72    73    1
    41    72    75    1
    42    52    53    2
    43    35    34   ar
    44    35    37   ar
    45    84    85    2
    46    48    47    1
    47    73    74    2
    48    34    36   ar
    49    63    61   ar
    50    60    61    1
    51    75    76    1
    52    37    39   ar
    53    76    78    1
    54    76    77    1
    55    61    62   ar
    56    36    38   ar
    57    39    38   ar
    58    39    40    1
    59   121   120    1
    60   121   122    2
    61    44    43    2
    62   120   119    1
    63    20    19    1
    64    43    42    1
    65    19    18    1
    66   117   116    2
    67   119   116   am
    68   116   115    1
    69    11    10    1
    70    18    17    1
    71     2     5    1
    72     2     3    1
    73     2     1    1
    74    42    45    1
    75    42    41    1
    76    45    46    1
    77    17    16    1
    78     3     4    2
    79     3     6   am
    80   143   141   ar
    81   143   144   ar
    82   118   115    1
    83   145   144    1
    84     6     7    1
    85   115   114    1
    86     7    10    1
    87     7     8    1
    88   141   139   ar
    89   144   142   ar
    90   134   135    1
    91   114   112   am
    92    16    13    1
    93    13    12    1
    94    13    14    1
    95   139   138    1
    96   139   140   ar
    97     8     9    2
    98   142   140   ar
    99   135   138    1
   100   135   136    1
   101   112   111    1
   102   112   113    2
   103   137   136    2
   104   111   110    1
   105   102   101    1
   106    93    91    1
   107    15    14    2
   108   101   100    1
   109   123   124    1
   110   132   131    1
   111   106   105    2
   112   131   133    1
   113   131   130    2
   114   129   130    1
   115   129   128    1
   116    91    92    1
   117    91    88    1
   118   110   105   am
   119   124   127    1
   120   124   125    1
   121   105   104    1
   122   127   128    1
   123   108   107    1
   124   100    99    1
   125    88    87    1
   126    88    89    1
   127   125   126    2
   128    99    98    1
   129   107   104    1
   130   107   109    1
   131   104   103    1
   132    90    89    2
   133   103    96   am
   134    98    95    1
   135    96    97    2
   136    96    95    1
   137    95    94    1
