@<TRIPOS>MOLECULE
tmp/1i2zB01.pdb
 124 117 0 0 0
SMALL
GASTEIGER

@<TRIPOS>ATOM
      1  N        -14.0270   38.2190  151.3170 N.3    92  GLY92      -0.1210
      2  CA       -12.6300   37.8780  151.4860 C.3    92  GLY92       0.1956
      3  C        -12.4000   37.3470  152.8770 C.2    92  GLY92       0.2612
      4  O        -13.0330   37.8320  153.8210 O.2    92  GLY92      -0.2717
      5  N        -11.5670   36.3160  153.0040 N.am   93  PHE93      -0.1962
      6  CA       -11.2830   35.7580  154.3120 C.3    93  PHE93       0.1771
      7  C        -10.0090   34.9560  154.4070 C.2    93  PHE93       0.2619
      8  O         -9.5830   34.3140  153.4520 O.2    93  PHE93      -0.2715
      9  CB       -12.4340   34.8910  154.8030 C.3    93  PHE93       0.0574
     10  CG       -12.2440   34.3900  156.1930 C.ar   93  PHE93      -0.0200
     11  CD1      -12.3380   35.2540  157.2610 C.ar   93  PHE93      -0.0042
     12  CD2      -11.9300   33.0600  156.4350 C.ar   93  PHE93      -0.0042
     13  CE1      -12.1160   34.8100  158.5570 C.ar   93  PHE93      -0.0003
     14  CE2      -11.7080   32.6030  157.7290 C.ar   93  PHE93      -0.0003
     15  CZ       -11.8020   33.4820  158.7900 C.ar   93  PHE93      -0.0000
     16  N         -9.4540   34.9640  155.6120 N.am   94  ALA94      -0.1977
     17  CA        -8.2360   34.2590  155.9670 C.3    94  ALA94       0.1597
     18  C         -8.2620   34.1790  157.4940 C.2    94  ALA94       0.2287
     19  O         -8.6470   35.1400  158.1900 O.2    94  ALA94      -0.2864
     20  CB        -7.0070   35.0170  155.4860 C.3    94  ALA94       0.0319
     21  N         -7.3500   34.2280  161.3490 N.3    96  GLY96      -0.1225
     22  CA        -6.5560   35.1910  162.1120 C.3    96  GLY96       0.1811
     23  C         -5.0600   34.9820  162.1760 C.2    96  GLY96       0.2280
     24  O         -4.3000   35.8880  161.8840 O.2    96  GLY96      -0.2866
     25  N         -2.6060   36.3010  158.9590 N.3    99  LEU99      -0.1245
     26  CA        -2.0990   37.6480  158.6340 C.3    99  LEU99       0.1561
     27  C         -1.2630   38.3260  159.7110 C.2    99  LEU99       0.2260
     28  O         -1.1880   39.5430  159.7700 O.2    99  LEU99      -0.2867
     29  CB        -3.2370   38.6080  158.3290 C.3    99  LEU99       0.0270
     30  CG        -4.3290   38.2280  157.3610 C.3    99  LEU99       0.0019
     31  CD1       -3.8870   37.2250  156.3120 C.3    99  LEU99       0.0001
     32  CD2       -5.4720   37.6680  158.1920 C.3    99  LEU99       0.0001
     33  N         -6.2870   43.6670  146.0100 N.3   145  TYR145     -0.1241
     34  CA        -5.3690   44.5590  146.7400 C.3   145  TYR145      0.1605
     35  C         -3.9690   44.4230  146.1390 C.2   145  TYR145      0.2264
     36  O         -3.6630   43.3680  145.5830 O.2   145  TYR145     -0.2867
     37  CB        -5.3530   44.1670  148.2480 C.3   145  TYR145      0.0534
     38  CG        -4.4740   45.0150  149.1370 C.ar  145  TYR145     -0.0201
     39  CD1       -4.6540   46.3830  149.2160 C.ar  145  TYR145     -0.0009
     40  CD2       -3.3830   44.4690  149.7870 C.ar  145  TYR145     -0.0009
     41  CE1       -3.7650   47.1760  149.8860 C.ar  145  TYR145      0.0417
     42  CE2       -2.4810   45.2740  150.4690 C.ar  145  TYR145      0.0417
     43  CZ        -2.6750   46.6230  150.4970 C.ar  145  TYR145      0.1957
     44  OH        -1.7340   47.4590  151.0340 O.3   145  TYR145     -0.2866
     45  N          0.3680   40.8770  155.0900 N.3   155  TYR155     -0.1241
     46  CA        -0.7170   40.5160  154.1620 C.3   155  TYR155      0.1605
     47  C         -0.6420   38.9920  153.9490 C.2   155  TYR155      0.2264
     48  O         -1.6540   38.3060  153.7840 O.2   155  TYR155     -0.2867
     49  CB        -0.6390   41.2900  152.8520 C.3   155  TYR155      0.0534
     50  CG        -1.9910   41.3770  152.1830 C.ar  155  TYR155     -0.0201
     51  CD1       -3.0930   41.8760  152.8780 C.ar  155  TYR155     -0.0009
     52  CD2       -2.1930   40.9010  150.8930 C.ar  155  TYR155     -0.0009
     53  CE1       -4.3620   41.8910  152.3130 C.ar  155  TYR155      0.0417
     54  CE2       -3.4600   40.9160  150.3130 C.ar  155  TYR155      0.0417
     55  CZ        -4.5340   41.4080  151.0290 C.ar  155  TYR155      0.1957
     56  OH        -5.7900   41.4040  150.4750 O.3   155  TYR155     -0.2866
     57  N         -2.8990   36.1260  152.1030 N.3   158  MET158     -0.1245
     58  CA        -3.9530   36.8340  151.3640 C.3   158  MET158      0.1570
     59  C         -3.3810   37.3370  150.0450 C.2   158  MET158      0.2261
     60  O         -4.0740   37.4210  149.0350 O.2   158  MET158     -0.2867
     61  CB        -4.5180   38.0080  152.1360 C.3   158  MET158      0.0387
     62  CG        -5.6670   37.6810  153.0150 C.3   158  MET158      0.0595
     63  SD        -7.0010   36.9170  152.1070 S.3   158  MET158     -0.1393
     64  CE        -7.4610   38.2020  151.0740 C.3   158  MET158      0.0692
     65  N         -5.2740   36.7320  146.6490 N.3   162  LYS162     -0.1245
     66  CA        -5.6280   37.8140  145.7240 C.3   162  LYS162      0.1561
     67  C         -5.0480   37.5790  144.3350 C.2   162  LYS162      0.2260
     68  O         -5.7010   37.8860  143.3440 O.2   162  LYS162     -0.2867
     69  CB        -5.1870   39.2010  146.2370 C.3   162  LYS162      0.0271
     70  CG        -5.9820   39.7530  147.4090 C.3   162  LYS162      0.0035
     71  CD        -7.4410   39.7070  147.1310 C.3   162  LYS162      0.0206
     72  CE        -8.1920   40.3410  148.2390 C.3   162  LYS162      0.1093
     73  NZ        -9.6470   40.3310  147.9410 N.3   162  LYS162     -0.1314
     74  N         -5.6850   50.8640  150.7650 N.3   190  PRO190     -0.2102
     75  CA        -6.1990   50.5440  152.0990 C.3   190  PRO190      0.1504
     76  C         -7.2230   51.5750  152.5900 C.2   190  PRO190      0.2575
     77  O         -7.0740   52.7790  152.4060 O.2   190  PRO190     -0.2718
     78  CB        -4.9280   50.4900  152.9580 C.3   190  PRO190      0.0282
     79  CG        -3.9000   51.2820  152.1550 C.3   190  PRO190      0.0208
     80  CD        -4.2090   50.9190  150.7580 C.3   190  PRO190      0.0893
     81  N         -8.3140   51.0830  153.1400 N.am  191  ILE191     -0.1980
     82  CA        -9.3660   51.9380  153.6470 C.3   191  ILE191      0.1595
     83  C         -9.6590   51.4050  155.0450 C.2   191  ILE191      0.2287
     84  O         -9.5160   50.1980  155.2870 O.2   191  ILE191     -0.2864
     85  CB       -10.6370   51.7970  152.7980 C.3   191  ILE191      0.0276
     86  CG1      -10.3110   51.9060  151.3090 C.3   191  ILE191      0.0022
     87  CG2      -11.6230   52.8670  153.1610 C.3   191  ILE191      0.0022
     88  CD1      -11.4860   51.6050  150.4060 C.3   191  ILE191      0.0001
     89  N        -12.1350   45.1940  158.2300 N.3   195  ALA195     -0.1245
     90  CA       -10.9230   44.4390  157.9030 C.3   195  ALA195      0.1562
     91  C         -9.6220   45.0330  158.4760 C.2   195  ALA195      0.2260
     92  O         -8.5760   44.3660  158.5200 O.2   195  ALA195     -0.2867
     93  CB       -10.7980   44.3390  156.3820 C.3   195  ALA195      0.0290
     94  N         -7.9940   43.2540  162.0030 N.3   198  GLY198     -0.1210
     95  CA        -7.2130   42.0700  161.7390 C.3   198  GLY198      0.1956
     96  C         -5.7810   42.3050  161.3290 C.2   198  GLY198      0.2611
     97  O         -4.9310   41.4570  161.6310 O.2   198  GLY198     -0.2717
     98  N         -5.4820   43.4440  160.6990 N.am  199  ILE199     -0.1979
     99  CA        -4.1150   43.6710  160.2360 C.3   199  ILE199      0.1595
    100  C         -3.2140   44.5770  161.1320 C.2   199  ILE199      0.2287
    101  O         -3.6630   45.5630  161.7590 O.2   199  ILE199     -0.2864
    102  CB        -4.0990   44.0340  158.6990 C.3   199  ILE199      0.0276
    103  CG1       -2.8390   43.4710  158.0220 C.3   199  ILE199      0.0022
    104  CG2       -4.2380   45.5590  158.4800 C.3   199  ILE199      0.0022
    105  CD1       -3.0460   42.9170  156.6420 C.3   199  ILE199      0.0001
    106  N         -2.0950   48.9250  161.0880 N.3   202  PHE202     -0.1241
    107  CA        -2.9630   49.5380  160.0880 C.3   202  PHE202      0.1605
    108  C         -2.9070   51.0430  160.1100 C.2   202  PHE202      0.2264
    109  O         -2.4160   51.6510  159.1660 O.2   202  PHE202     -0.2867
    110  CB        -4.4020   49.0530  160.2280 C.3   202  PHE202      0.0534
    111  CG        -5.2900   49.4080  159.0540 C.ar  202  PHE202     -0.0203
    112  CD1       -6.3010   50.3560  159.1870 C.ar  202  PHE202     -0.0042
    113  CD2       -5.1190   48.7860  157.8170 C.ar  202  PHE202     -0.0042
    114  CE1       -7.1310   50.6850  158.1100 C.ar  202  PHE202     -0.0003
    115  CE2       -5.9430   49.1090  156.7370 C.ar  202  PHE202     -0.0003
    116  CZ        -6.9500   50.0630  156.8870 C.ar  202  PHE202     -0.0000
    117  N          0.0140   52.2870  158.6710 N.3   205  MET205     -0.1245
    118  CA         0.0420   52.1400  157.2210 C.3   205  MET205      0.1570
    119  C         -0.7020   53.2800  156.5450 C.2   205  MET205      0.2261
    120  O         -0.1480   53.9370  155.6720 O.2   205  MET205     -0.2867
    121  CB        -0.5790   50.8180  156.8010 C.3   205  MET205      0.0387
    122  CG        -1.7630   50.9480  155.8680 C.3   205  MET205      0.0595
    123  SD        -2.2910   49.3290  155.3920 S.3   205  MET205     -0.1393
    124  CE        -0.7580   48.7180  154.6880 C.3   205  MET205      0.0692
@<TRIPOS>BOND
     1    68    67    2
     2    67    66    1
     3    36    35    2
     4    66    69    1
     5    66    65    1
     6    33    34    1
     7    35    34    1
     8    69    70    1
     9    34    37    1
    10    71    70    1
    11    71    72    1
    12    73    72    1
    13    37    38    1
    14    60    59    2
    15    38    39   ar
    16    38    40   ar
    17    39    41   ar
    18    40    42   ar
    19    41    43   ar
    20    59    58    1
    21    54    52   ar
    22    54    55   ar
    23    88    86    1
    24    42    43   ar
    25    56    55    1
    26    43    44    1
    27    80    74    1
    28    80    79    1
    29    74    75    1
    30    52    50   ar
    31    55    53   ar
    32    64    63    1
    33    86    85    1
    34     1     2    1
    35    58    57    1
    36    58    61    1
    37     2     3    1
    38    75    76    1
    39    75    78    1
    40    63    62    1
    41    61    62    1
    42    79    78    1
    43    50    49    1
    44    50    51   ar
    45    53    51   ar
    46    77    76    2
    47    76    81   am
    48    85    87    1
    49    85    82    1
    50    49    46    1
    51     3     5   am
    52     3     4    2
    53     5     6    1
    54    81    82    1
    55     8     7    2
    56    82    83    1
    57    48    47    2
    58    47    46    1
    59    46    45    1
    60     6     7    1
    61     6     9    1
    62     7    16   am
    63   124   123    1
    64     9    10    1
    65    83    84    2
    66   123   122    1
    67    20    17    1
    68    16    17    1
    69   120   119    2
    70   122   121    1
    71    17    18    1
    72    10    12   ar
    73    10    11   ar
    74    31    30    1
    75    93    90    1
    76    12    14   ar
    77   119   118    1
    78   105   103    1
    79   115   116   ar
    80   115   113   ar
    81   121   118    1
    82   116   114   ar
    83   118   117    1
    84    11    13   ar
    85    30    32    1
    86    30    29    1
    87    18    19    2
    88    14    15   ar
    89   113   111   ar
    90    90    89    1
    91    90    91    1
    92   103   102    1
    93   114   112   ar
    94    29    26    1
    95    91    92    2
    96   104   102    1
    97    13    15   ar
    98    26    25    1
    99    26    27    1
   100   102    99    1
   101   111   112   ar
   102   111   110    1
   103   109   108    2
   104    27    28    2
   105   107   108    1
   106   107   110    1
   107   107   106    1
   108    99    98    1
   109    99   100    1
   110    98    96   am
   111   100   101    2
   112    96    97    2
   113    96    95    1
   114    21    22    1
   115    95    94    1
   116    24    23    2
   117    22    23    1
