@<TRIPOS>MOLECULE
tmp/1i30A01.pdb
 94 88 0 0 0
SMALL
GASTEIGER

@<TRIPOS>ATOM
      1  N          4.1920   19.5720  141.0160 N.3    92  GLY92      -0.1225
      2  CA         3.0030   20.2180  140.4860 C.3    92  GLY92       0.1811
      3  C          1.8290   19.2650  140.3180 C.2    92  GLY92       0.2280
      4  O          2.0060   18.1380  139.8500 O.2    92  GLY92      -0.2866
      5  N         -8.0920   20.2750  134.6290 N.3    99  LEU99      -0.1245
      6  CA        -7.4140   20.9020  133.5020 C.3    99  LEU99       0.1561
      7  C         -7.9070   20.7510  132.0780 C.2    99  LEU99       0.2260
      8  O         -7.1030   20.4680  131.1860 O.2    99  LEU99      -0.2867
      9  CB        -5.9420   20.5140  133.5150 C.3    99  LEU99       0.0270
     10  CG        -5.1230   20.8010  134.7650 C.3    99  LEU99       0.0019
     11  CD1       -3.6780   20.9070  134.3280 C.3    99  LEU99       0.0001
     12  CD2       -5.5610   22.0940  135.4330 C.3    99  LEU99       0.0001
     13  N          4.8180   28.7660  135.7730 N.3   145  TYR145     -0.1241
     14  CA         4.4580   28.8280  134.3620 C.3   145  TYR145      0.1605
     15  C          3.6630   30.1010  134.0680 C.2   145  TYR145      0.2264
     16  O          2.9580   30.5970  134.9400 O.2   145  TYR145     -0.2867
     17  CB         3.6220   27.6010  134.0150 C.3   145  TYR145      0.0534
     18  CG         3.2190   27.5710  132.5730 C.ar  145  TYR145     -0.0201
     19  CD1        4.1880   27.6360  131.5630 C.ar  145  TYR145     -0.0009
     20  CD2        1.8780   27.5360  132.2130 C.ar  145  TYR145     -0.0009
     21  CE1        3.8180   27.6780  130.2170 C.ar  145  TYR145      0.0417
     22  CE2        1.4910   27.5780  130.8800 C.ar  145  TYR145      0.0417
     23  CZ         2.4660   27.6480  129.8880 C.ar  145  TYR145      0.1957
     24  OH         2.0870   27.6620  128.5720 O.3   145  TYR145     -0.2866
     25  N         -5.4430   25.4770  131.2410 N.3   155  TYR155     -0.1241
     26  CA        -4.5240   25.4850  132.3800 C.3   155  TYR155      0.1605
     27  C         -5.3590   25.6590  133.6460 C.2   155  TYR155      0.2264
     28  O         -4.9900   25.2300  134.7440 O.2   155  TYR155     -0.2867
     29  CB        -3.4750   26.5940  132.2510 C.3   155  TYR155      0.0534
     30  CG        -2.2510   26.3360  133.1110 C.ar  155  TYR155     -0.0201
     31  CD1       -1.4770   25.1770  132.9360 C.ar  155  TYR155     -0.0009
     32  CD2       -1.8810   27.2300  134.1090 C.ar  155  TYR155     -0.0009
     33  CE1       -0.3580   24.9240  133.7380 C.ar  155  TYR155      0.0417
     34  CE2       -0.7790   26.9910  134.9150 C.ar  155  TYR155      0.0417
     35  CZ        -0.0170   25.8410  134.7270 C.ar  155  TYR155      0.1957
     36  OH         1.1110   25.6360  135.5110 O.3   155  TYR155     -0.2866
     37  N         -4.7690   25.5590  137.8240 N.3   158  MET158     -0.1245
     38  CA        -3.3420   25.4610  138.0060 C.3   158  MET158      0.1570
     39  C         -2.7380   26.8800  137.8950 C.2   158  MET158      0.2261
     40  O         -1.6940   27.1700  138.4780 O.2   158  MET158     -0.2867
     41  CB        -2.7860   24.5110  136.9380 C.3   158  MET158      0.0387
     42  CG        -1.5080   23.7800  137.2940 C.3   158  MET158      0.0595
     43  SD        -1.3160   23.2390  139.0340 S.3   158  MET158     -0.1393
     44  CE         0.2640   24.1210  139.3240 C.3   158  MET158      0.0692
     45  N         -0.3810   28.6970  140.6220 N.3   162  LYS162     -0.1245
     46  CA         0.9410   29.2440  140.2770 C.3   162  LYS162      0.1561
     47  C          1.0730   30.7310  140.6480 C.2   162  LYS162      0.2260
     48  O          2.1670   31.1960  140.9870 O.2   162  LYS162     -0.2867
     49  CB         1.2560   29.0710  138.7770 C.3   162  LYS162      0.0271
     50  CG         1.4960   27.6370  138.3320 C.3   162  LYS162      0.0035
     51  CD         2.6180   26.9340  139.1350 C.3   162  LYS162      0.0206
     52  CE         3.0500   25.6150  138.4700 C.3   162  LYS162      0.1093
     53  NZ         4.0170   24.8790  139.3130 N.3   162  LYS162     -0.1314
     54  N          6.7690   25.8420  127.7510 N.3   190  PRO190     -0.2102
     55  CA         6.3170   24.4510  127.7260 C.3   190  PRO190      0.1504
     56  C          7.4130   23.4690  127.3400 C.2   190  PRO190      0.2575
     57  O          8.2040   23.7320  126.4450 O.2   190  PRO190     -0.2718
     58  CB         5.1620   24.4800  126.7320 C.3   190  PRO190      0.0282
     59  CG         5.5700   25.5700  125.7990 C.3   190  PRO190      0.0208
     60  CD         6.0830   26.6420  126.7310 C.3   190  PRO190      0.0893
     61  N          7.4600   22.3530  128.0670 N.am  191  ILE191     -0.1980
     62  CA         8.4260   21.2840  127.8410 C.3   191  ILE191      0.1595
     63  C          7.6350   19.9770  127.9430 C.2   191  ILE191      0.2287
     64  O          6.8300   19.8060  128.8600 O.2   191  ILE191     -0.2864
     65  CB         9.5340   21.2540  128.9350 C.3   191  ILE191      0.0276
     66  CG1       10.3040   22.5610  128.9660 C.3   191  ILE191      0.0022
     67  CG2       10.5130   20.1570  128.6500 C.3   191  ILE191      0.0022
     68  CD1       11.4420   22.5700  129.9670 C.3   191  ILE191      0.0001
     69  N          7.0370   16.7340  129.2080 N.3   193  THR193     -0.1218
     70  CA         7.5270   15.9340  130.3160 C.3   193  THR193      0.1862
     71  C          6.4560   14.9480  130.7740 C.2   193  THR193      0.2287
     72  O          5.2860   15.0760  130.3950 O.2   193  THR193     -0.2866
     73  CB         7.9430   16.8360  131.5150 C.3   193  THR193      0.1770
     74  OG1        6.7790   17.4120  132.1180 O.3   193  THR193     -0.2211
     75  CG2        8.8640   17.9620  131.0410 C.3   193  THR193      0.0375
     76  N         -1.1600   19.6050  122.9270 N.3   194  PHE194     -0.1241
     77  CA         0.2120   19.8470  123.3460 C.3   194  PHE194      0.1605
     78  C          1.1000   19.9310  122.1220 C.2   194  PHE194      0.2264
     79  O          1.6810   20.9790  121.8430 O.2   194  PHE194     -0.2867
     80  CB         0.7000   18.7300  124.2670 C.3   194  PHE194      0.0534
     81  CG         1.7570   19.1690  125.2390 C.ar  194  PHE194     -0.0203
     82  CD1        3.1000   19.1810  124.8880 C.ar  194  PHE194     -0.0042
     83  CD2        1.3950   19.6060  126.5040 C.ar  194  PHE194     -0.0042
     84  CE1        4.0620   19.6230  125.7930 C.ar  194  PHE194     -0.0003
     85  CE2        2.3450   20.0470  127.4060 C.ar  194  PHE194     -0.0003
     86  CZ         3.6780   20.0610  127.0530 C.ar  194  PHE194     -0.0000
     87  N          0.4030   23.0110  120.9690 N.3   197  MET197     -0.1245
     88  CA         0.9350   24.0210  121.8650 C.3   197  MET197      0.1570
     89  C          2.4150   24.2360  121.5060 C.2   197  MET197      0.2261
     90  O          2.8360   25.3470  121.1380 O.2   197  MET197     -0.2867
     91  CB         0.7860   23.5310  123.3090 C.3   197  MET197      0.0387
     92  CG         1.2940   24.4710  124.3920 C.3   197  MET197      0.0595
     93  SD         0.8950   23.8290  126.0670 S.3   197  MET197     -0.1393
     94  CE        -0.5840   24.8510  126.5230 C.3   197  MET197      0.0692
@<TRIPOS>BOND
     1    87    88    1
     2    90    89    2
     3    89    88    1
     4    79    78    2
     5    88    91    1
     6    78    77    1
     7    76    77    1
     8    91    92    1
     9    77    80    1
    10    80    81    1
    11    92    93    1
    12    82    81   ar
    13    82    84   ar
    14    81    83   ar
    15    84    86   ar
    16    59    60    1
    17    59    58    1
    18    93    94    1
    19    57    56    2
    20    83    85   ar
    21    60    54    1
    22    58    55    1
    23    86    85   ar
    24    56    55    1
    25    56    61   am
    26    55    54    1
    27    62    63    1
    28    62    61    1
    29    62    65    1
    30    63    64    2
    31    24    23    1
    32    67    65    1
    33    65    66    1
    34    66    68    1
    35    69    70    1
    36    23    21   ar
    37    23    22   ar
    38    21    19   ar
    39    70    71    1
    40    70    73    1
    41    72    71    2
    42    22    20   ar
    43    75    73    1
    44     8     7    2
    45    25    26    1
    46    73    74    1
    47    19    18   ar
    48     7     6    1
    49    20    18   ar
    50    29    26    1
    51    29    30    1
    52    26    27    1
    53    18    17    1
    54    31    30   ar
    55    31    33   ar
    56    30    32   ar
    57     6     9    1
    58     6     5    1
    59     9    10    1
    60    27    28    2
    61    33    35   ar
    62    17    14    1
    63    15    14    1
    64    15    16    2
    65    32    34   ar
    66    11    10    1
    67    14    13    1
    68    35    34   ar
    69    35    36    1
    70    10    12    1
    71    41    42    1
    72    41    38    1
    73    42    43    1
    74    37    38    1
    75    39    38    1
    76    39    40    2
    77    50    49    1
    78    50    51    1
    79    52    51    1
    80    52    53    1
    81    49    46    1
    82    43    44    1
    83     4     3    2
    84    46    45    1
    85    46    47    1
    86     3     2    1
    87     2     1    1
    88    47    48    2
