@<TRIPOS>MOLECULE
tmp/1i32B00.pdb
 164 161 0 0 0
SMALL
GASTEIGER

@<TRIPOS>ATOM
      1  N         28.5340   95.9310   22.3610 N.3     8  ASN8       -0.1225
      2  CA        27.9110   95.9620   21.0500 C.3     8  ASN8        0.1785
      3  C         28.4070   94.7820   20.2270 C.2     8  ASN8        0.2598
      4  O         29.5890   94.7030   19.8620 O.2     8  ASN8       -0.2718
      5  CB        28.1920   97.2680   20.3210 C.3     8  ASN8        0.1169
      6  CG        27.3380   97.4240   19.0830 C.2     8  ASN8        0.2627
      7  OD1       26.1460   97.1090   19.1000 O.2     8  ASN8       -0.2716
      8  ND2       27.9360   97.9200   18.0010 N.am    8  ASN8       -0.0877
      9  N         27.4820   93.8660   19.9460 N.am    9  GLY9       -0.1942
     10  CA        27.8040   92.6540   19.2210 C.3     9  GLY9        0.2014
     11  C         28.0180   91.5110   20.1960 C.2     9  GLY9        0.2639
     12  O         29.0720   91.4120   20.8190 O.2     9  GLY9       -0.2714
     13  N         27.0160   90.6550   20.3510 N.am   10  PHE10      -0.1959
     14  CA        27.1220   89.5490   21.2880 C.3    10  PHE10       0.1771
     15  C         27.4120   88.2280   20.5910 C.2    10  PHE10       0.2620
     16  O         26.6360   87.2710   20.6880 O.2    10  PHE10      -0.2715
     17  CB        25.8400   89.4250   22.1100 C.3    10  PHE10       0.0574
     18  CG        26.0620   88.9230   23.5100 C.ar   10  PHE10      -0.0200
     19  CD1       26.9670   89.5640   24.3550 C.ar   10  PHE10      -0.0042
     20  CD2       25.3390   87.8420   24.0020 C.ar   10  PHE10      -0.0042
     21  CE1       27.1450   89.1400   25.6720 C.ar   10  PHE10      -0.0003
     22  CE2       25.5070   87.4080   25.3180 C.ar   10  PHE10      -0.0003
     23  CZ        26.4120   88.0600   26.1540 C.ar   10  PHE10      -0.0000
     24  N         28.5330   88.1950   19.8800 N.am   11  GLY11      -0.1940
     25  CA        28.9650   86.9830   19.2150 C.3    11  GLY11       0.2014
     26  C         30.0000   86.2710   20.0680 C.2    11  GLY11       0.2639
     27  O         29.9980   86.4440   21.2900 O.2    11  GLY11      -0.2714
     28  N         30.8830   85.4860   19.4520 N.am   12  ARG12      -0.1963
     29  CA        31.9220   84.7680   20.2020 C.3    12  ARG12       0.1729
     30  C         32.7470   85.7240   21.0370 C.2    12  ARG12       0.2616
     31  O         32.9520   85.5150   22.2350 O.2    12  ARG12      -0.2715
     32  CB        32.8770   84.0130   19.2650 C.3    12  ARG12       0.0348
     33  CG        32.4870   82.5770   18.9780 C.3    12  ARG12       0.0492
     34  CD        32.3190   81.7610   20.2630 C.3    12  ARG12       0.2205
     35  NE        33.5320   81.0620   20.6860 N.pl3  12  ARG12      -0.0865
     36  CZ        33.5520   80.1120   21.6210 C.cat  12  ARG12       0.5346
     37  NH1       32.4370   79.7500   22.2340 N.pl3  12  ARG12       0.1354
     38  NH2       34.6820   79.4950   21.9320 N.pl3  12  ARG12       0.1354
     39  N         33.2280   86.7740   20.3890 N.am   13  ILE13      -0.1977
     40  CA        34.0370   87.7610   21.0760 C.3    13  ILE13       0.1596
     41  C         33.2620   88.4120   22.2230 C.2    13  ILE13       0.2287
     42  O         33.7050   88.3830   23.3730 O.2    13  ILE13      -0.2864
     43  CB        34.4930   88.8690   20.1170 C.3    13  ILE13       0.0276
     44  CG1       34.9700   88.2700   18.7910 C.3    13  ILE13       0.0022
     45  CG2       35.6020   89.6700   20.7710 C.3    13  ILE13       0.0022
     46  CD1       36.1930   87.4100   18.9090 C.3    13  ILE13       0.0001
     47  N         24.0950   94.4070   23.0010 N.3    37  VAL37      -0.1231
     48  CA        23.3510   94.6890   21.7780 C.3    37  VAL37       0.1692
     49  C         23.6330   93.6900   20.6600 C.2    37  VAL37       0.2592
     50  O         24.7850   93.3780   20.3590 O.2    37  VAL37      -0.2718
     51  CB        23.6860   96.0970   21.2510 C.3    37  VAL37       0.0266
     52  CG1       22.7650   96.4430   20.0980 C.3    37  VAL37       0.0020
     53  CG2       23.5660   97.1130   22.3750 C.3    37  VAL37       0.0020
     54  N         22.5660   93.2110   20.0260 N.am   38  ASP38      -0.1960
     55  CA        22.6960   92.2590   18.9300 C.3    38  ASP38       0.1840
     56  C         21.4170   92.1920   18.0880 C.2    38  ASP38       0.2622
     57  O         20.4010   92.7980   18.4370 O.2    38  ASP38      -0.2715
     58  CB        23.0470   90.8680   19.4770 C.3    38  ASP38       0.1450
     59  CG        23.8850   90.0450   18.4970 C.2    38  ASP38       0.3671
     60  OD1       23.3970   89.7500   17.3870 O.co2  38  ASP38      -0.2456
     61  OD2       25.0380   89.6970   18.8310 O.co2  38  ASP38      -0.2456
     62  N         21.4900   91.4540   16.9780 N.am   39  MET39      -0.1963
     63  CA        20.3760   91.2680   16.0380 C.3    39  MET39       0.1736
     64  C         19.1840   90.5630   16.6920 C.2    39  MET39       0.2617
     65  O         18.0900   90.5290   16.1320 O.2    39  MET39      -0.2715
     66  CB        20.8350   90.4430   14.8350 C.3    39  MET39       0.0427
     67  CG        22.1160   90.9300   14.1810 C.3    39  MET39       0.0599
     68  SD        21.9150   92.4510   13.2790 S.3    39  MET39      -0.1393
     69  CE        21.7080   91.7990   11.6190 C.3    39  MET39       0.0692
     70  N         19.4100   89.9700   17.8590 N.am   40  SER40      -0.1950
     71  CA        18.3480   89.3020   18.5920 C.3    40  SER40       0.1924
     72  C         18.3440   89.7580   20.0390 C.2    40  SER40       0.2314
     73  O         19.3860   90.1120   20.5820 O.2    40  SER40      -0.2863
     74  CB        18.5300   87.7870   18.5490 C.3    40  SER40       0.2116
     75  OG        17.5780   87.1250   19.3740 O.3    40  SER40      -0.2180
     76  N         18.0280   82.4870   24.4570 N.3    45  TYR45      -0.1227
     77  CA        19.0490   81.9560   23.5840 C.3    45  TYR45       0.1736
     78  C         20.4300   82.3280   24.1020 C.2    45  TYR45       0.2595
     79  O         21.3360   81.5030   24.1020 O.2    45  TYR45      -0.2718
     80  CB        18.8660   82.4640   22.1580 C.3    45  TYR45       0.0548
     81  CG        19.8270   81.8160   21.1870 C.ar   45  TYR45      -0.0200
     82  CD1       19.9370   80.4230   21.1010 C.ar   45  TYR45      -0.0009
     83  CD2       20.6460   82.5850   20.3730 C.ar   45  TYR45      -0.0009
     84  CE1       20.8450   79.8220   20.2280 C.ar   45  TYR45       0.0417
     85  CE2       21.5580   81.9900   19.4950 C.ar   45  TYR45       0.0417
     86  CZ        21.6520   80.6160   19.4310 C.ar   45  TYR45       0.1957
     87  OH        22.5630   80.0480   18.5740 O.3    45  TYR45      -0.2866
     88  N         20.5870   83.5650   24.5590 N.am   46  PHE46      -0.1976
     89  CA        21.8700   84.0000   25.0950 C.3    46  PHE46       0.1639
     90  C         22.2480   83.1890   26.3230 C.2    46  PHE46       0.2290
     91  O         23.4140   82.8250   26.4920 O.2    46  PHE46      -0.2864
     92  CB        21.8360   85.4790   25.4510 C.3    46  PHE46       0.0560
     93  CG        21.7030   86.3720   24.2650 C.ar   46  PHE46      -0.0200
     94  CD1       22.2770   86.0180   23.0480 C.ar   46  PHE46      -0.0042
     95  CD2       21.0290   87.5760   24.3600 C.ar   46  PHE46      -0.0042
     96  CE1       22.1780   86.8530   21.9460 C.ar   46  PHE46      -0.0003
     97  CE2       20.9240   88.4230   23.2590 C.ar   46  PHE46      -0.0003
     98  CZ        21.5000   88.0590   22.0510 C.ar   46  PHE46      -0.0000
     99  N         23.6830   79.9530   25.2490 N.3    49  GLN49      -0.1245
    100  CA        25.0360   80.0950   24.7340 C.3    49  GLN49       0.1566
    101  C         26.0600   80.3180   25.8440 C.2    49  GLN49       0.2260
    102  O         27.2170   79.9030   25.7320 O.2    49  GLN49      -0.2867
    103  CB        25.0990   81.2510   23.7380 C.3    49  GLN49       0.0367
    104  CG        24.4330   80.9600   22.4200 C.3    49  GLN49       0.0905
    105  CD        24.5060   82.1250   21.4610 C.2    49  GLN49       0.2608
    106  OE1       24.6440   81.9340   20.2550 O.2    49  GLN49      -0.2717
    107  NE2       24.4000   83.3400   21.9860 N.am   49  GLN49      -0.0878
    108  N         19.7720   95.7410   17.9250 N.3    90  ALA90      -0.1231
    109  CA        20.8940   96.3340   17.2130 C.3    90  ALA90       0.1694
    110  C         20.4670   97.4510   16.2770 C.2    90  ALA90       0.2592
    111  O         19.3100   97.5290   15.8640 O.2    90  ALA90      -0.2718
    112  CB        21.6210   95.2760   16.4280 C.3    90  ALA90       0.0304
    113  N         21.4410   98.2970   15.9400 N.am   91  GLN91      -0.1966
    114  CA        21.2680   99.4390   15.0440 C.3    91  GLN91       0.1733
    115  C         22.3210   99.4170   13.9330 C.2    91  GLN91       0.2616
    116  O         23.4360   98.9250   14.1330 O.2    91  GLN91      -0.2715
    117  CB        21.4110  100.7490   15.8250 C.3    91  GLN91       0.0408
    118  CG        20.3310  100.9930   16.8680 C.3    91  GLN91       0.0908
    119  CD        18.9430  101.0860   16.2610 C.2    91  GLN91       0.2608
    120  OE1       18.7370  101.7750   15.2570 O.2    91  GLN91      -0.2717
    121  NE2       17.9800  100.3980   16.8740 N.am   91  GLN91      -0.0878
    122  N         21.9690   99.9460   12.7640 N.am   92  ARG92      -0.1977
    123  CA        22.9110  100.0080   11.6430 C.3    92  ARG92       0.1597
    124  C         24.0370  100.9840   11.9500 C.2    92  ARG92       0.2287
    125  O         25.2020  100.7130   11.6790 O.2    92  ARG92      -0.2864
    126  CB        22.2120  100.4610   10.3600 C.3    92  ARG92       0.0334
    127  CG        21.1810   99.4930    9.8390 C.3    92  ARG92       0.0492
    128  CD        20.8560   99.7630    8.3770 C.3    92  ARG92       0.2205
    129  NE        20.1720   98.6240    7.7690 N.pl3  92  ARG92      -0.0865
    130  CZ        19.9120   98.5060    6.4710 C.cat  92  ARG92       0.5346
    131  NH1       20.2750   99.4650    5.6250 N.pl3  92  ARG92       0.1354
    132  NH2       19.2990   97.4190    6.0170 N.pl3  92  ARG92       0.1354
    133  N         32.3720   95.0200   19.5480 N.3   110  SER110     -0.1202
    134  CA        32.8420   93.7190   19.1040 C.3   110  SER110      0.2020
    135  C         32.0000   93.1050   17.9900 C.2   110  SER110      0.2619
    136  O         31.8600   91.8900   17.9250 O.2   110  SER110     -0.2717
    137  CB        32.9260   92.7650   20.3080 C.3   110  SER110      0.2103
    138  OG        31.7010   92.7100   21.0090 O.3   110  SER110     -0.2182
    139  N         31.4480   93.9290   17.1110 N.am  111  THR111     -0.1952
    140  CA        30.6610   93.4040   15.9950 C.3   111  THR111      0.1897
    141  C         31.5760   93.1160   14.8020 C.2   111  THR111      0.2313
    142  O         31.2190   92.3750   13.8890 O.2   111  THR111     -0.2863
    143  CB        29.5830   94.4060   15.5220 C.3   111  THR111      0.1794
    144  OG1       30.2270   95.5730   14.9970 O.3   111  THR111     -0.2208
    145  CG2       28.6650   94.7960   16.6680 C.3   111  THR111      0.0378
    146  N         32.2960   95.1690   12.6340 N.3   113  LEU113     -0.1231
    147  CA        31.8600   96.0100   11.5260 C.3   113  LEU113      0.1693
    148  C         32.3000   97.4550   11.7150 C.2   113  LEU113      0.2592
    149  O         32.3160   98.2420   10.7660 O.2   113  LEU113     -0.2718
    150  CB        30.3420   95.9650   11.4060 C.3   113  LEU113      0.0284
    151  CG        29.7070   94.5810   11.2710 C.3   113  LEU113      0.0019
    152  CD1       28.2000   94.7370   11.0810 C.3   113  LEU113      0.0001
    153  CD2       30.3210   93.8380   10.0950 C.3   113  LEU113      0.0001
    154  N         32.6710   97.7990   12.9420 N.am  114  PHE114     -0.1976
    155  CA        33.0650   99.1630   13.2380 C.3   114  PHE114      0.1639
    156  C         34.4840   99.2320   13.7610 C.2   114  PHE114      0.2290
    157  O         34.7360   99.7990   14.8170 O.2   114  PHE114     -0.2864
    158  CB        32.0800   99.7560   14.2480 C.3   114  PHE114      0.0560
    159  CG        30.6400   99.5710   13.8530 C.ar  114  PHE114     -0.0200
    160  CD1       30.1230  100.2100   12.7260 C.ar  114  PHE114     -0.0042
    161  CD2       29.8140   98.7180   14.5720 C.ar  114  PHE114     -0.0042
    162  CE1       28.8060   99.9970   12.3260 C.ar  114  PHE114     -0.0003
    163  CE2       28.4950   98.4990   14.1780 C.ar  114  PHE114     -0.0003
    164  CZ        27.9910   99.1390   13.0520 C.ar  114  PHE114     -0.0000
@<TRIPOS>BOND
     1   131   130    1
     2   132   130    1
     3   130   129    2
     4   129   128    1
     5   128   127    1
     6   127   126    1
     7   153   151    1
     8   126   123    1
     9   149   148    2
    10   152   151    1
    11   151   150    1
    12   150   147    1
    13   147   148    1
    14   147   146    1
    15    69    68    1
    16   123   124    1
    17   123   122    1
    18   125   124    2
    19   148   154   am
    20   162   160   ar
    21   162   164   ar
    22   160   159   ar
    23   122   115   am
    24   154   155    1
    25   164   163   ar
    26   155   156    1
    27   155   158    1
    28    68    67    1
    29   156   157    2
    30   159   158    1
    31   159   161   ar
    32   142   141    2
    33   115   116    2
    34   115   114    1
    35   163   161   ar
    36    67    66    1
    37   141   140    1
    38    66    63    1
    39   144   143    1
    40   114   117    1
    41   114   113    1
    42   120   119    2
    43   143   140    1
    44   143   145    1
    45   117   118    1
    46   111   110    2
    47   113   110   am
    48   140   139    1
    49    63    64    1
    50    63    62    1
    51    65    64    2
    52   119   118    1
    53   119   121   am
    54   110   109    1
    55   112   109    1
    56    64    70   am
    57    62    56   am
    58   139   135   am
    59   109   108    1
    60    60    59   ar
    61    70    71    1
    62   136   135    2
    63   135   134    1
    64     8     6   am
    65    56    57    2
    66    56    55    1
    67    59    61   ar
    68    59    58    1
    69    74    71    1
    70    74    75    1
    71    87    86    1
    72    71    72    1
    73    44    46    1
    74    44    43    1
    75    55    58    1
    76    55    54    1
    77    33    32    1
    78    33    34    1
    79     6     7    2
    80     6     5    1
    81   134   133    1
    82   134   137    1
    83    25    24    1
    84    25    26    1
    85    10     9    1
    86    10    11    1
    87    32    29    1
    88    86    85   ar
    89    86    84   ar
    90    28    26   am
    91    28    29    1
    92    85    83   ar
    93     4     3    2
    94    24    15   am
    95     9     3   am
    96    54    49   am
    97    72    73    2
    98    26    27    2
    99    52    51    1
   100    43    45    1
   101    43    40    1
   102    11    13   am
   103    11    12    2
   104    29    30    1
   105     3     2    1
   106    84    82   ar
   107   106   105    2
   108    34    35    1
   109   137   138    1
   110     5     2    1
   111    13    14    1
   112    50    49    2
   113    83    81   ar
   114    39    30   am
   115    39    40    1
   116    15    16    2
   117    15    14    1
   118    49    48    1
   119    35    36    2
   120    30    31    2
   121     2     1    1
   122    40    41    1
   123    82    81   ar
   124    81    80    1
   125    51    48    1
   126    51    53    1
   127    14    17    1
   128   105   107   am
   129   105   104    1
   130    36    38    1
   131    36    37    1
   132    48    47    1
   133    96    98   ar
   134    96    94   ar
   135    98    97   ar
   136    17    18    1
   137    80    77    1
   138    41    42    2
   139   104   103    1
   140    94    93   ar
   141    97    95   ar
   142    18    20   ar
   143    18    19   ar
   144    77    78    1
   145    77    76    1
   146   103   100    1
   147    20    22   ar
   148    78    79    2
   149    78    88   am
   150    93    95   ar
   151    93    92    1
   152    19    21   ar
   153    88    89    1
   154   100    99    1
   155   100   101    1
   156    89    92    1
   157    89    90    1
   158    22    23   ar
   159    21    23   ar
   160   102   101    2
   161    90    91    2
