@<TRIPOS>MOLECULE
tmp/1i33E00.pdb
 173 168 0 0 0
SMALL
GASTEIGER

@<TRIPOS>ATOM
      1  N        101.2990  -17.8530    5.5940 N.3     8  ASN8       -0.1225
      2  CA       101.3350  -18.7090    6.7600 C.3     8  ASN8        0.1785
      3  C        100.5230  -18.0430    7.8460 C.2     8  ASN8        0.2598
      4  O        100.8450  -16.9430    8.2790 O.2     8  ASN8       -0.2718
      5  CB       102.7740  -18.9550    7.2170 C.3     8  ASN8        0.1169
      6  CG       102.8700  -20.0470    8.2730 C.2     8  ASN8        0.2627
      7  OD1      102.1460  -21.0440    8.2150 O.2     8  ASN8       -0.2716
      8  ND2      103.7740  -19.8720    9.2350 N.am    8  ASN8       -0.0877
      9  N         99.4540  -18.7020    8.2660 N.am    9  GLY9       -0.1942
     10  CA        98.5790  -18.1150    9.2590 C.3     9  GLY9        0.2014
     11  C         97.4620  -17.3540    8.5670 C.2     9  GLY9        0.2639
     12  O         97.7320  -16.3950    7.8410 O.2     9  GLY9       -0.2714
     13  N         96.2150  -17.7820    8.7690 N.am   10  PHE10      -0.1959
     14  CA        95.0840  -17.1380    8.1190 C.3    10  PHE10       0.1771
     15  C         94.0780  -16.5590    9.1120 C.2    10  PHE10       0.2620
     16  O         92.8900  -16.9090    9.0890 O.2    10  PHE10      -0.2715
     17  CB        94.3780  -18.1270    7.2030 C.3    10  PHE10       0.0574
     18  CG        93.7740  -17.4970    5.9840 C.ar   10  PHE10      -0.0200
     19  CD1       94.5830  -16.8400    5.0560 C.ar   10  PHE10      -0.0042
     20  CD2       92.4080  -17.6020    5.7320 C.ar   10  PHE10      -0.0042
     21  CE1       94.0410  -16.3010    3.8860 C.ar   10  PHE10      -0.0003
     22  CE2       91.8560  -17.0660    4.5610 C.ar   10  PHE10      -0.0003
     23  CZ        92.6790  -16.4150    3.6360 C.ar   10  PHE10      -0.0000
     24  N         94.5640  -15.6800    9.9820 N.am   11  GLY11      -0.1954
     25  CA        93.7070  -15.0010   10.9340 C.3    11  GLY11       0.1869
     26  C         93.4000  -13.6040   10.4270 C.2    11  GLY11       0.2309
     27  O         93.4080  -13.3950    9.2080 O.2    11  GLY11      -0.2863
     28  N         95.1800  -10.7310   10.3530 N.3    13  ILE13      -0.1245
     29  CA        96.2450  -10.2090    9.5170 C.3    13  ILE13       0.1561
     30  C         96.3690  -10.9850    8.2200 C.2    13  ILE13       0.2260
     31  O         96.4770  -10.4000    7.1420 O.2    13  ILE13      -0.2867
     32  CB        97.5970  -10.2770   10.2150 C.3    13  ILE13       0.0252
     33  CG1       97.4270  -10.2030   11.7330 C.3    13  ILE13       0.0019
     34  CG2       98.4660   -9.1280    9.7180 C.3    13  ILE13       0.0019
     35  CD1       97.1240   -8.8170   12.2500 C.3    13  ILE13       0.0001
     36  N         94.1880  -12.8810    6.4750 N.3    15  ARG15      -0.1245
     37  CA        93.1030  -12.6100    5.5420 C.3    15  ARG15       0.1563
     38  C         93.2300  -11.2110    4.9720 C.2    15  ARG15       0.2260
     39  O         93.2610  -11.0280    3.7570 O.2    15  ARG15      -0.2867
     40  CB        91.7410  -12.7690    6.2290 C.3    15  ARG15       0.0307
     41  CG        91.4380  -14.1720    6.7380 C.3    15  ARG15       0.0489
     42  CD        89.9590  -14.3200    7.0760 C.3    15  ARG15       0.2205
     43  NE        89.5480  -13.5220    8.2330 N.pl3  15  ARG15      -0.0865
     44  CZ        89.7070  -13.8920    9.5040 C.cat  15  ARG15       0.5346
     45  NH1       90.2700  -15.0570    9.8020 N.pl3  15  ARG15       0.1354
     46  NH2       89.2960  -13.0960   10.4850 N.pl3  15  ARG15       0.1354
     47  N         98.2960  -21.3300    4.8600 N.3    37  VAL37      -0.1231
     48  CA        98.4570  -22.3250    5.9090 C.3    37  VAL37       0.1692
     49  C         97.8210  -21.8550    7.2000 C.2    37  VAL37       0.2592
     50  O         97.8890  -20.6780    7.5240 O.2    37  VAL37      -0.2718
     51  CB        99.9390  -22.5820    6.1640 C.3    37  VAL37       0.0266
     52  CG1      100.1040  -23.6600    7.1900 C.3    37  VAL37       0.0020
     53  CG2      100.6320  -22.9530    4.8650 C.3    37  VAL37       0.0020
     54  N         97.2100  -22.7860    7.9290 N.am   38  ASP38      -0.1960
     55  CA        96.5580  -22.4910    9.1990 C.3    38  ASP38       0.1840
     56  C         96.1310  -23.7790    9.8960 C.2    38  ASP38       0.2622
     57  O         96.0550  -24.8290    9.2690 O.2    38  ASP38      -0.2715
     58  CB        95.3370  -21.6000    8.9690 C.3    38  ASP38       0.1450
     59  CG        94.8270  -20.9580   10.2530 C.2    38  ASP38       0.3671
     60  OD1       94.1730  -21.6540   11.0530 O.co2  38  ASP38      -0.2456
     61  OD2       95.0840  -19.7510   10.4690 O.co2  38  ASP38      -0.2456
     62  N         95.8600  -23.6890   11.1960 N.am   39  MET39      -0.1963
     63  CA        95.4400  -24.8320   12.0020 C.3    39  MET39       0.1736
     64  C         94.2610  -25.5580   11.3720 C.2    39  MET39       0.2617
     65  O         94.0250  -26.7300   11.6540 O.2    39  MET39      -0.2715
     66  CB        95.0340  -24.3690   13.4020 C.3    39  MET39       0.0427
     67  CG        96.1250  -23.6650   14.1860 C.3    39  MET39       0.0599
     68  SD        97.4360  -24.7680   14.7390 S.3    39  MET39      -0.1393
     69  CE        97.1960  -24.7390   16.5170 C.3    39  MET39       0.0692
     70  N         93.5190  -24.8550   10.5280 N.am   40  SER40      -0.1950
     71  CA        92.3520  -25.4240    9.8660 C.3    40  SER40       0.1924
     72  C         92.4400  -25.2830    8.3500 C.2    40  SER40       0.2314
     73  O         93.1130  -24.3910    7.8300 O.2    40  SER40      -0.2863
     74  CB        91.0900  -24.7230   10.3540 C.3    40  SER40       0.2116
     75  OG        89.9700  -25.1270    9.5940 O.3    40  SER40      -0.2180
     76  N         84.6850  -22.1530    5.9170 N.3    45  TYR45      -0.1227
     77  CA        84.7450  -21.1940    7.0060 C.3    45  TYR45       0.1736
     78  C         85.5360  -19.9750    6.6000 C.2    45  TYR45       0.2595
     79  O         85.1460  -18.8650    6.9190 O.2    45  TYR45      -0.2718
     80  CB        85.3740  -21.8020    8.2530 C.3    45  TYR45       0.0548
     81  CG        85.3280  -20.8670    9.4390 C.ar   45  TYR45      -0.0200
     82  CD1       84.1210  -20.3110    9.8480 C.ar   45  TYR45      -0.0009
     83  CD2       86.4890  -20.5140   10.1340 C.ar   45  TYR45      -0.0009
     84  CE1       84.0650  -19.4240   10.9120 C.ar   45  TYR45       0.0417
     85  CE2       86.4400  -19.6300   11.2010 C.ar   45  TYR45       0.0417
     86  CZ        85.2200  -19.0870   11.5810 C.ar   45  TYR45       0.1957
     87  OH        85.1320  -18.1880   12.6170 O.3    45  TYR45      -0.2866
     88  N         86.6570  -20.1740    5.9120 N.am   46  PHE46      -0.1976
     89  CA        87.4530  -19.0380    5.4550 C.3    46  PHE46       0.1639
     90  C         86.6140  -18.1510    4.5280 C.2    46  PHE46       0.2290
     91  O         86.5770  -16.9240    4.6790 O.2    46  PHE46      -0.2864
     92  CB        88.7060  -19.5080    4.7000 C.3    46  PHE46       0.0560
     93  CG        89.7240  -20.1930    5.5630 C.ar   46  PHE46      -0.0200
     94  CD1       89.8660  -19.8540    6.9020 C.ar   46  PHE46      -0.0042
     95  CD2       90.5790  -21.1460    5.0240 C.ar   46  PHE46      -0.0042
     96  CE1       90.8450  -20.4520    7.6850 C.ar   46  PHE46      -0.0003
     97  CE2       91.5600  -21.7460    5.8040 C.ar   46  PHE46      -0.0003
     98  CZ        91.6910  -21.3980    7.1310 C.ar   46  PHE46      -0.0000
     99  N         84.3100  -16.0900    6.5020 N.3    49  GLN49      -0.1245
    100  CA        85.0410  -15.0340    7.1830 C.3    49  GLN49       0.1566
    101  C         85.3980  -13.9070    6.2370 C.2    49  GLN49       0.2260
    102  O         85.4300  -12.7500    6.6430 O.2    49  GLN49      -0.2867
    103  CB        86.3220  -15.5820    7.8070 C.3    49  GLN49       0.0367
    104  CG        86.1620  -16.2330    9.1660 C.3    49  GLN49       0.0905
    105  CD        87.4630  -16.8640    9.6550 C.2    49  GLN49       0.2608
    106  OE1       87.6140  -17.1670   10.8390 O.2    49  GLN49      -0.2717
    107  NE2       88.4050  -17.0700    8.7380 N.am   49  GLN49      -0.0878
    108  N         97.4820  -27.6470    5.7070 N.3    89  LYS89      -0.1231
    109  CA        97.4810  -27.8230    7.1550 C.3    89  LYS89       0.1693
    110  C         98.7400  -27.2300    7.7840 C.2    89  LYS89       0.2592
    111  O         99.8360  -27.3410    7.2340 O.2    89  LYS89      -0.2718
    112  CB        97.3800  -29.3130    7.4960 C.3    89  LYS89       0.0285
    113  CG        97.5780  -29.6440    8.9670 C.3    89  LYS89       0.0035
    114  CD        96.3160  -29.4470    9.7780 C.3    89  LYS89       0.0206
    115  CE        95.2260  -30.4060    9.3310 C.3    89  LYS89       0.1093
    116  NZ        94.0000  -30.2770   10.1710 N.3    89  LYS89      -0.1314
    117  N         98.5750  -26.6230    8.9520 N.am   90  ALA90      -0.1966
    118  CA        99.6750  -25.9890    9.6750 C.3    90  ALA90       0.1728
    119  C        100.7030  -26.9940   10.2160 C.2    90  ALA90       0.2616
    120  O        100.4020  -28.1740   10.4030 O.2    90  ALA90      -0.2715
    121  CB        99.1140  -25.1580   10.8170 C.3    90  ALA90       0.0334
    122  N        101.9140  -26.4950   10.4740 N.am   91  GLN91      -0.1963
    123  CA       103.0230  -27.2880   11.0090 C.3    91  GLN91       0.1733
    124  C        103.7160  -26.5490   12.1520 C.2    91  GLN91       0.2616
    125  O        103.6640  -25.3220   12.2100 O.2    91  GLN91      -0.2715
    126  CB       104.0710  -27.5590    9.9260 C.3    91  GLN91       0.0408
    127  CG       103.6580  -28.5200    8.8330 C.3    91  GLN91       0.0908
    128  CD       103.3600  -29.9090    9.3560 C.2    91  GLN91       0.2608
    129  OE1      103.9030  -30.3350   10.3780 O.2    91  GLN91      -0.2717
    130  NE2      102.5020  -30.6330    8.6480 N.am   91  GLN91      -0.0878
    131  N        104.3740  -27.2930   13.0440 N.am   92  ARG92      -0.1977
    132  CA       105.0970  -26.6890   14.1650 C.3    92  ARG92       0.1597
    133  C        106.2720  -25.8720   13.6770 C.2    92  ARG92       0.2287
    134  O        106.3940  -24.6940   13.9990 O.2    92  ARG92      -0.2864
    135  CB       105.6370  -27.7460   15.1150 C.3    92  ARG92       0.0334
    136  CG       104.6130  -28.2940   16.0370 C.3    92  ARG92       0.0492
    137  CD       105.1430  -28.3360   17.4470 C.3    92  ARG92       0.2205
    138  NE       104.0820  -28.6580   18.3910 N.pl3  92  ARG92      -0.0865
    139  CZ       104.2650  -28.7760   19.6990 C.cat  92  ARG92       0.5346
    140  NH1      105.4730  -28.6000   20.2150 N.pl3  92  ARG92       0.1354
    141  NH2      103.2390  -29.0640   20.4910 N.pl3  92  ARG92       0.1354
    142  N        102.4570  -14.3510    8.8620 N.3   110  SER110     -0.1202
    143  CA       101.4810  -13.6140    9.6560 C.3   110  SER110      0.2020
    144  C        100.8450  -14.4540   10.7550 C.2   110  SER110      0.2619
    145  O         99.6330  -14.3950   10.9570 O.2   110  SER110     -0.2717
    146  CB       100.3780  -13.0840    8.7510 C.3   110  SER110      0.2103
    147  OG        99.6020  -14.1610    8.2670 O.3   110  SER110     -0.2182
    148  N        101.6380  -15.2440   11.4620 N.am  111  THR111     -0.1952
    149  CA       101.0890  -16.0400   12.5510 C.3   111  THR111      0.1897
    150  C        101.3800  -15.3520   13.8630 C.2   111  THR111      0.2313
    151  O        100.6740  -15.5440   14.8450 O.2   111  THR111     -0.2863
    152  CB       101.7190  -17.4420   12.6390 C.3   111  THR111      0.1794
    153  OG1      103.0940  -17.3220   13.0280 O.3   111  THR111     -0.2208
    154  CG2      101.6170  -18.1690   11.3080 C.3   111  THR111      0.0378
    155  N        103.9870  -15.9280   15.4880 N.3   113  LEU113     -0.1231
    156  CA       104.7510  -16.8830   16.2810 C.3   113  LEU113      0.1693
    157  C        106.1840  -17.0320   15.7840 C.2   113  LEU113      0.2592
    158  O        107.0060  -17.6700   16.4380 O.2   113  LEU113     -0.2718
    159  CB       104.0600  -18.2450   16.2640 C.3   113  LEU113      0.0284
    160  CG       102.6000  -18.2520   16.7180 C.3   113  LEU113      0.0019
    161  CD1      102.0960  -19.6800   16.7110 C.3   113  LEU113      0.0001
    162  CD2      102.4680  -17.6540   18.1070 C.3   113  LEU113      0.0001
    163  N        106.4870  -16.4550   14.6270 N.am  114  PHE114     -0.1976
    164  CA       107.8360  -16.5360   14.0820 C.3   114  PHE114      0.1639
    165  C        108.3580  -15.1530   13.7540 C.2   114  PHE114      0.2290
    166  O        108.8460  -14.9030   12.6540 O.2   114  PHE114     -0.2864
    167  CB       107.8520  -17.3990   12.8230 C.3   114  PHE114      0.0560
    168  CG       107.2490  -18.7520   13.0180 C.ar  114  PHE114     -0.0200
    169  CD1      107.6990  -19.5830   14.0390 C.ar  114  PHE114     -0.0042
    170  CD2      106.2070  -19.1860   12.2060 C.ar  114  PHE114     -0.0042
    171  CE1      107.1150  -20.8260   14.2540 C.ar  114  PHE114     -0.0003
    172  CE2      105.6140  -20.4260   12.4090 C.ar  114  PHE114     -0.0003
    173  CZ       106.0670  -21.2490   13.4350 C.ar  114  PHE114     -0.0000
@<TRIPOS>BOND
     1    23    21   ar
     2    23    22   ar
     3    39    38    2
     4    21    19   ar
     5    90    91    2
     6    90    89    1
     7    22    20   ar
     8    92    89    1
     9    92    93    1
    10    47    48    1
    11    53    51    1
    12    38    37    1
    13    95    93   ar
    14    95    97   ar
    15    19    18   ar
    16    89    88    1
    17    37    40    1
    18    37    36    1
    19    93    94   ar
    20     1     2    1
    21   108   109    1
    22    20    18   ar
    23    97    98   ar
    24    48    51    1
    25    48    49    1
    26    88    78   am
    27    76    77    1
    28    18    17    1
    29    51    52    1
    30    40    41    1
    31   101   102    2
    32   101   100    1
    33    99   100    1
    34    78    79    2
    35    78    77    1
    36    41    42    1
    37     2     5    1
    38     2     3    1
    39    94    96   ar
    40    77    80    1
    41    42    43    1
    42    98    96   ar
    43    31    30    2
    44   109   112    1
    45   109   110    1
    46   100   103    1
    47    49    50    2
    48    49    54   am
    49    17    14    1
    50     5     6    1
    51   111   110    2
    52   112   113    1
    53   110   117   am
    54   103   104    1
    55    73    72    2
    56    12    11    2
    57     3     9   am
    58     3     4    2
    59    54    55    1
    60    14    13    1
    61    14    15    1
    62     7     6    2
    63    30    29    1
    64    43    44    2
    65    80    81    1
    66     9    10    1
    67   147   146    1
    68     6     8   am
    69    72    71    1
    70    11    13   am
    71    11    10    1
    72   130   128   am
    73   107   105   am
    74   146   143    1
    75   127   128    1
    76   127   126    1
    77   142   143    1
    78   117   118    1
    79   113   114    1
    80    58    55    1
    81    58    59    1
    82    16    15    2
    83    15    24   am
    84   104   105    1
    85    55    56    1
    86    27    26    2
    87    57    56    2
    88   115   114    1
    89   115   116    1
    90   128   129    2
    91    81    82   ar
    92    81    83   ar
    93    44    45    1
    94    44    46    1
    95    29    32    1
    96    29    28    1
    97    75    74    1
    98   105   106    2
    99   143   144    1
   100   118   119    1
   101   118   121    1
   102    34    32    1
   103    82    84   ar
   104    71    74    1
   105    71    70    1
   106    56    62   am
   107   126   123    1
   108    24    25    1
   109    83    85   ar
   110    32    33    1
   111   119   120    2
   112   119   122   am
   113    59    61   ar
   114    59    60   ar
   115    26    25    1
   116   122   123    1
   117    70    64   am
   118   144   145    2
   119   144   148   am
   120    84    86   ar
   121   123   124    1
   122    62    63    1
   123    85    86   ar
   124   154   152    1
   125    64    65    2
   126    64    63    1
   127   148   149    1
   128    86    87    1
   129    33    35    1
   130    63    66    1
   131   124   125    2
   132   124   131   am
   133   170   172   ar
   134   170   168   ar
   135   172   173   ar
   136   149   152    1
   137   149   150    1
   138   152   153    1
   139   166   165    2
   140   167   168    1
   141   167   164    1
   142   168   169   ar
   143   131   132    1
   144    66    67    1
   145   173   171   ar
   146   133   134    2
   147   133   132    1
   148   165   164    1
   149   150   151    2
   150   169   171   ar
   151   164   163    1
   152   132   135    1
   153    67    68    1
   154   163   157   am
   155    68    69    1
   156   135   136    1
   157   155   156    1
   158   157   156    1
   159   157   158    2
   160   136   137    1
   161   159   156    1
   162   159   160    1
   163   161   160    1
   164   160   162    1
   165   137   138    1
   166   138   139    2
   167   139   140    1
   168   139   141    1
