@<TRIPOS>MOLECULE
tmp/1i3eB00.pdb
 225 214 0 0 0
SMALL
GASTEIGER

@<TRIPOS>ATOM
      1  N         12.5490  -30.3780    9.6440 N.3    28  LEU28      -0.1245
      2  CA        13.5080  -29.3520   10.1130 C.3    28  LEU28       0.1561
      3  C         13.3090  -29.0720   11.5310 C.2    28  LEU28       0.2260
      4  O         14.2580  -28.8860   12.3040 O.2    28  LEU28      -0.2867
      5  CB        13.3590  -28.0820    9.2420 C.3    28  LEU28       0.0270
      6  CG        14.2110  -26.9210    9.6800 C.3    28  LEU28       0.0019
      7  CD1       15.7040  -27.3550    9.5490 C.3    28  LEU28       0.0001
      8  CD2       13.9360  -25.7140    8.7230 C.3    28  LEU28       0.0001
      9  N         14.8320  -31.7040   13.6300 N.3    31  LEU31      -0.1245
     10  CA        16.3030  -31.6340   13.6420 C.3    31  LEU31       0.1561
     11  C         16.7090  -30.6130   14.7070 C.2    31  LEU31       0.2260
     12  O         17.6080  -30.8560   15.5130 O.2    31  LEU31      -0.2867
     13  CB        16.7570  -31.1560   12.2640 C.3    31  LEU31       0.0270
     14  CG        18.3230  -30.9190   12.1910 C.3    31  LEU31       0.0019
     15  CD1       19.0170  -32.2030   12.1220 C.3    31  LEU31       0.0001
     16  CD2       18.5940  -30.1400   10.8030 C.3    31  LEU31       0.0001
     17  N         22.1820  -27.6190   15.8370 N.3    38  THR38      -0.1218
     18  CA        21.8460  -27.1780   14.4360 C.3    38  THR38       0.1862
     19  C         21.1090  -25.8360   14.4670 C.2    38  THR38       0.2287
     20  O         21.0060  -25.1970   13.3990 O.2    38  THR38      -0.2866
     21  CB        20.9890  -28.2060   13.7430 C.3    38  THR38       0.1770
     22  OG1       19.7830  -28.4870   14.4680 O.3    38  THR38      -0.2211
     23  CG2       21.8030  -29.5260   13.6190 C.3    38  THR38       0.0375
     24  N         22.6760  -22.4790   12.9170 N.3    41  PHE41      -0.1227
     25  CA        22.6270  -22.0680   11.4810 C.3    41  PHE41       0.1736
     26  C         21.3570  -21.3290   11.1620 C.2    41  PHE41       0.2595
     27  O         21.3490  -20.7030   10.0460 O.2    41  PHE41      -0.2718
     28  CB        22.5500  -23.4480   10.6780 C.3    41  PHE41       0.0547
     29  CG        23.8870  -24.1070   10.6310 C.ar   41  PHE41      -0.0202
     30  CD1       24.9280  -23.6230    9.8610 C.ar   41  PHE41      -0.0042
     31  CD2       24.0750  -25.2750   11.3970 C.ar   41  PHE41      -0.0042
     32  CE1       26.1170  -24.3750    9.8360 C.ar   41  PHE41      -0.0003
     33  CE2       25.3740  -25.8590   11.3950 C.ar   41  PHE41      -0.0003
     34  CZ        26.2850  -25.4360   10.6070 C.ar   41  PHE41      -0.0000
     35  N         20.4160  -21.2840   11.9590 N.am   42  PHE42      -0.1976
     36  CA        19.1350  -20.6300   11.6870 C.3    42  PHE42       0.1639
     37  C         18.8020  -19.5240   12.8160 C.2    42  PHE42       0.2290
     38  O         17.6510  -19.3790   13.1580 O.2    42  PHE42      -0.2864
     39  CB        18.0280  -21.6690   11.6780 C.3    42  PHE42       0.0560
     40  CG        18.2930  -22.7550   10.7010 C.ar   42  PHE42      -0.0200
     41  CD1       18.0130  -22.5190    9.3320 C.ar   42  PHE42      -0.0042
     42  CD2       18.8340  -23.9140   11.0520 C.ar   42  PHE42      -0.0042
     43  CE1       18.2180  -23.6020    8.4270 C.ar   42  PHE42      -0.0003
     44  CE2       19.0250  -24.9740   10.2040 C.ar   42  PHE42      -0.0003
     45  CZ        18.7040  -24.7860    8.8190 C.ar   42  PHE42      -0.0000
     46  N         18.5150  -16.3780   12.3570 N.3    44  SER44      -0.1202
     47  CA        17.6190  -15.3680   11.7660 C.3    44  SER44       0.2020
     48  C         16.0760  -15.8010   11.7990 C.2    44  SER44       0.2615
     49  O         15.2210  -15.0830   11.4860 O.2    44  SER44      -0.2717
     50  CB        18.0120  -14.9770   10.4880 C.3    44  SER44       0.2103
     51  OG        17.8140  -16.1340    9.5450 O.3    44  SER44      -0.2182
     52  N         15.9440  -17.1210   12.1880 N.am   45  PHE45      -0.2029
     53  CA        14.4690  -17.6080   12.2040 C.3    45  PHE45       0.1325
     54  C         13.7830  -17.1650   13.4910 C.3    45  PHE45       0.2039
     55  O         12.5290  -17.3460   13.4760 O.3    45  PHE45      -0.2185
     56  CB        14.5070  -19.1470   12.1050 C.3    45  PHE45       0.0507
     57  CG        14.8420  -19.6180   10.6500 C.ar   45  PHE45      -0.0204
     58  CD1       15.5630  -18.8740    9.7710 C.ar   45  PHE45      -0.0042
     59  CD2       14.2400  -20.8590   10.2350 C.ar   45  PHE45      -0.0042
     60  CE1       15.7960  -19.3290    8.4580 C.ar   45  PHE45      -0.0003
     61  CE2       14.5070  -21.2910    8.9330 C.ar   45  PHE45      -0.0003
     62  CZ        15.2350  -20.5700    8.0450 C.ar   45  PHE45      -0.0000
     63  N         10.9310  -22.9090    5.5260 N.3    63  HIS63      -0.1241
     64  CA        12.1980  -23.4390    5.0210 C.3    63  HIS63       0.1621
     65  C         12.2160  -24.9440    4.8410 C.2    63  HIS63       0.2264
     66  O         12.7100  -25.4410    3.8640 O.2    63  HIS63      -0.2867
     67  CB        13.3280  -23.1040    6.0220 C.3    63  HIS63       0.0745
     68  CG        14.6350  -23.2970    5.4640 C.ar   63  HIS63       0.0817
     69  ND1       15.1460  -22.4520    4.4340 N.ar   63  HIS63      -0.2268
     70  CD2       15.5850  -24.2070    5.6870 C.ar   63  HIS63       0.1154
     71  CE1       16.3740  -22.9000    4.0820 C.ar   63  HIS63       0.1986
     72  NE2       16.6410  -23.9440    4.8080 N.ar   63  HIS63      -0.2212
     73  N         11.0880  -25.9390    1.5550 N.3    66  LYS66      -0.1231
     74  CA        12.0970  -25.8180    0.4840 C.3    66  LYS66       0.1693
     75  C         12.9480  -27.0220    0.5070 C.2    66  LYS66       0.2592
     76  O         13.3110  -27.5690   -0.5320 O.2    66  LYS66      -0.2718
     77  CB        12.8990  -24.5640    0.7140 C.3    66  LYS66       0.0285
     78  CG        12.1840  -23.2410    0.5870 C.3    66  LYS66       0.0035
     79  CD        13.1270  -22.0880    0.8800 C.3    66  LYS66       0.0206
     80  CE        12.2650  -20.7400    0.7250 C.3    66  LYS66       0.1093
     81  NZ        13.2660  -19.6220    1.0480 N.3    66  LYS66      -0.1314
     82  N         13.3750  -27.4240    1.7030 N.am   67  VAL67      -0.1966
     83  CA        14.3560  -28.5600    1.8480 C.3    67  VAL67       0.1727
     84  C         13.7600  -29.8370    1.2400 C.2    67  VAL67       0.2616
     85  O         14.4260  -30.4990    0.4160 O.2    67  VAL67      -0.2715
     86  CB        14.6130  -28.8110    3.3400 C.3    67  VAL67       0.0290
     87  CG1       15.4460  -30.0960    3.4860 C.3    67  VAL67       0.0023
     88  CG2       15.4130  -27.6130    3.8960 C.3    67  VAL67       0.0023
     89  N         12.4820  -30.1880    1.6490 N.am   68  LEU68      -0.1977
     90  CA        11.8920  -31.3950    1.1470 C.3    68  LEU68       0.1596
     91  C         11.4720  -31.3070   -0.3370 C.2    68  LEU68       0.2287
     92  O         11.4350  -32.3130   -1.0290 O.2    68  LEU68      -0.2864
     93  CB        10.7330  -31.7710    2.0290 C.3    68  LEU68       0.0297
     94  CG        11.0660  -32.8550    3.0720 C.3    68  LEU68       0.0022
     95  CD1       12.1570  -32.2620    4.0510 C.3    68  LEU68       0.0001
     96  CD2        9.8750  -33.2860    3.9090 C.3    68  LEU68       0.0001
     97  N         13.2810  -29.7540   -2.5680 N.3    70  SER70      -0.1202
     98  CA        14.4890  -30.0620   -3.2520 C.3    70  SER70       0.2020
     99  C         14.8040  -31.5020   -3.2150 C.2    70  SER70       0.2618
    100  O         15.3490  -32.0870   -4.1740 O.2    70  SER70      -0.2717
    101  CB        15.6970  -29.2510   -2.6650 C.3    70  SER70       0.2103
    102  OG        15.5050  -27.8450   -2.9990 O.3    70  SER70      -0.2182
    103  N         14.5420  -32.1400   -2.0650 N.am   71  LEU71      -0.1979
    104  CA        14.7700  -33.6180   -1.9340 C.3    71  LEU71       0.1596
    105  C         13.8780  -34.3670   -2.8820 C.2    71  LEU71       0.2287
    106  O         14.2670  -35.2390   -3.5420 O.2    71  LEU71      -0.2864
    107  CB        14.4760  -34.0290   -0.5170 C.3    71  LEU71       0.0297
    108  CG        14.5270  -35.5570   -0.2420 C.3    71  LEU71       0.0022
    109  CD1       16.0630  -35.8060   -0.3820 C.3    71  LEU71       0.0001
    110  CD2       13.9270  -35.8620    1.1260 C.3    71  LEU71       0.0001
    111  N         22.6850  -32.1240   -6.8800 N.3    85  PHE85      -0.1241
    112  CA        22.8700  -31.3070   -5.6700 C.3    85  PHE85       0.1605
    113  C         24.1110  -30.4440   -5.6760 C.2    85  PHE85       0.2264
    114  O         24.4620  -29.8080   -4.7010 O.2    85  PHE85      -0.2867
    115  CB        22.9540  -32.2900   -4.4500 C.3    85  PHE85       0.0534
    116  CG        21.6650  -32.6940   -3.9200 C.ar   85  PHE85      -0.0203
    117  CD1       20.7700  -31.7990   -3.3860 C.ar   85  PHE85      -0.0042
    118  CD2       21.3240  -34.0410   -3.9250 C.ar   85  PHE85      -0.0042
    119  CE1       19.5890  -32.1410   -2.7840 C.ar   85  PHE85      -0.0003
    120  CE2       20.0480  -34.4830   -3.3300 C.ar   85  PHE85      -0.0003
    121  CZ        19.1480  -33.4730   -2.7730 C.ar   85  PHE85      -0.0000
    122  N         24.8650  -27.4520   -6.8930 N.3    87  GLN87      -0.1231
    123  CA        24.7480  -26.1020   -6.5020 C.3    87  GLN87       0.1698
    124  C         24.4320  -25.9900   -4.9820 C.2    87  GLN87       0.2592
    125  O         25.0030  -25.1240   -4.3050 O.2    87  GLN87      -0.2718
    126  CB        23.5690  -25.3920   -7.2800 C.3    87  GLN87       0.0381
    127  CG        23.4480  -23.9460   -6.9670 C.3    87  GLN87       0.0905
    128  CD        22.5160  -23.7920   -5.6530 C.2    87  GLN87       0.2608
    129  OE1       22.5740  -22.5550   -5.1560 O.2    87  GLN87      -0.2717
    130  NE2       21.8920  -24.6330   -5.3710 N.am   87  GLN87      -0.0878
    131  N         23.5550  -26.8610   -4.4910 N.am   88  LEU88      -0.1980
    132  CA        23.2750  -26.7790   -3.0460 C.3    88  LEU88       0.1596
    133  C         24.5380  -27.2960   -2.2310 C.2    88  LEU88       0.2287
    134  O         24.6920  -26.7980   -1.1200 O.2    88  LEU88      -0.2864
    135  CB        22.1270  -27.7550   -2.6430 C.3    88  LEU88       0.0297
    136  CG        20.7380  -27.1800   -3.0550 C.3    88  LEU88       0.0022
    137  CD1       19.6860  -28.2140   -2.5570 C.3    88  LEU88       0.0001
    138  CD2       20.5010  -25.8170   -2.3440 C.3    88  LEU88       0.0001
    139  N         26.5730  -24.0670   -1.9230 N.3    91  LEU91      -0.1231
    140  CA        25.9080  -23.1590   -0.9510 C.3    91  LEU91       0.1693
    141  C         26.1670  -23.6160    0.5080 C.2    91  LEU91       0.2592
    142  O         26.6440  -22.8300    1.3020 O.2    91  LEU91      -0.2718
    143  CB        24.4220  -23.2160   -1.1520 C.3    91  LEU91       0.0284
    144  CG        23.5990  -22.4430   -0.1030 C.3    91  LEU91       0.0019
    145  CD1       24.1220  -20.8780   -0.1690 C.3    91  LEU91       0.0001
    146  CD2       22.1400  -22.5820   -0.3640 C.3    91  LEU91       0.0001
    147  N         25.8850  -24.8630    0.8150 N.am   92  HIS92      -0.1976
    148  CA        26.0220  -25.3500    2.1830 C.3    92  HIS92       0.1656
    149  C         27.5070  -25.4360    2.6620 C.2    92  HIS92       0.2291
    150  O         27.7800  -25.1920    3.7850 O.2    92  HIS92      -0.2864
    151  CB        25.4030  -26.6930    2.3160 C.3    92  HIS92       0.0771
    152  CG        23.8800  -26.6140    2.3140 C.ar   92  HIS92       0.0820
    153  ND1       23.1930  -26.4950    1.1060 N.ar   92  HIS92      -0.2267
    154  CD2       22.9550  -26.6210    3.2870 C.ar   92  HIS92       0.1154
    155  CE1       21.8400  -26.4140    1.3640 C.ar   92  HIS92       0.1986
    156  NE2       21.7080  -26.5010    2.7060 N.ar   92  HIS92      -0.2212
    157  N         27.8920  -21.5650    3.6570 N.3    96  LEU96      -0.1245
    158  CA        27.3210  -21.6140    4.9380 C.3    96  LEU96       0.1561
    159  C         28.2060  -22.4400    5.9400 C.2    96  LEU96       0.2260
    160  O         27.9070  -22.3900    7.1460 O.2    96  LEU96      -0.2867
    161  CB        25.9480  -22.2990    4.8560 C.3    96  LEU96       0.0270
    162  CG        24.9130  -21.5080    3.9870 C.3    96  LEU96       0.0019
    163  CD1       23.7300  -22.3790    3.7550 C.3    96  LEU96       0.0001
    164  CD2       24.5150  -20.1540    4.7780 C.3    96  LEU96       0.0001
    165  N         28.2270  -25.6390    6.6370 N.3    98  VAL98      -0.1245
    166  CA        27.4930  -26.6050    7.4160 C.3    98  VAL98       0.1561
    167  C         28.2600  -27.8510    7.5600 C.2    98  VAL98       0.2260
    168  O         28.8320  -28.3870    6.6160 O.2    98  VAL98      -0.2867
    169  CB        26.1280  -26.9940    6.6000 C.3    98  VAL98       0.0252
    170  CG1       25.4860  -28.1330    7.3490 C.3    98  VAL98       0.0019
    171  CG2       25.2930  -25.8260    6.4690 C.3    98  VAL98       0.0019
    172  N         25.9020  -32.9480    9.9520 N.3   102  ASN102     -0.1225
    173  CA        24.5690  -32.4670   10.0130 C.3   102  ASN102      0.1785
    174  C         23.6530  -32.9030    8.8280 C.2   102  ASN102      0.2597
    175  O         22.4390  -32.9610    8.9760 O.2   102  ASN102     -0.2718
    176  CB        24.4930  -30.9460   10.1100 C.3   102  ASN102      0.1169
    177  CG        25.1350  -30.4630   11.5470 C.2   102  ASN102      0.2627
    178  OD1       24.8680  -31.0990   12.5520 O.2   102  ASN102     -0.2716
    179  ND2       26.0000  -29.5510   11.4610 N.am  102  ASN102     -0.0877
    180  N         24.2550  -33.1930    7.7220 N.am  103  PHE103     -0.1976
    181  CA        23.4130  -33.6260    6.5390 C.3   103  PHE103      0.1639
    182  C         22.9110  -35.0090    6.9060 C.2   103  PHE103      0.2290
    183  O         21.7920  -35.3780    6.5480 O.2   103  PHE103     -0.2864
    184  CB        24.3070  -33.6900    5.2310 C.3   103  PHE103      0.0560
    185  CG        24.8160  -32.3940    4.7980 C.ar  103  PHE103     -0.0200
    186  CD1       23.9900  -31.2870    4.7050 C.ar  103  PHE103     -0.0042
    187  CD2       26.1730  -32.2870    4.4550 C.ar  103  PHE103     -0.0042
    188  CE1       24.5200  -30.0600    4.2360 C.ar  103  PHE103     -0.0003
    189  CE2       26.6550  -31.0360    4.0240 C.ar  103  PHE103     -0.0003
    190  CZ        25.8110  -29.9410    3.9080 C.ar  103  PHE103     -0.0000
    191  N         20.0140  -34.7250    9.4560 N.3   106  LEU106     -0.1231
    192  CA        18.7220  -34.3320    8.8820 C.3   106  LEU106      0.1693
    193  C         18.1430  -35.5830    8.2060 C.2   106  LEU106      0.2592
    194  O         16.8820  -35.8010    8.3120 O.2   106  LEU106     -0.2718
    195  CB        18.9110  -33.1950    7.8680 C.3   106  LEU106      0.0284
    196  CG        17.5980  -32.6080    7.3200 C.3   106  LEU106      0.0019
    197  CD1       17.9880  -31.2940    6.4860 C.3   106  LEU106      0.0001
    198  CD2       16.9870  -33.6380    6.3430 C.3   106  LEU106      0.0001
    199  N         18.9260  -36.3250    7.5610 N.am  107  GLY107     -0.1957
    200  CA        18.4670  -37.5690    6.8830 C.3   107  GLY107      0.1869
    201  C         17.8630  -38.5040    7.9440 C.2   107  GLY107      0.2309
    202  O         16.7380  -39.0450    7.7200 O.2   107  GLY107     -0.2863
    203  N         14.4570  -37.2780    8.9840 N.3   110  LEU110     -0.1245
    204  CA        13.3980  -37.4900    7.8930 C.3   110  LEU110      0.1561
    205  C         12.9290  -38.9050    8.0020 C.2   110  LEU110      0.2260
    206  O         11.7570  -39.1700    7.9290 O.2   110  LEU110     -0.2867
    207  CB        14.0710  -37.2250    6.5120 C.3   110  LEU110      0.0270
    208  CG        13.1640  -37.5660    5.3520 C.3   110  LEU110      0.0019
    209  CD1       11.8620  -36.6370    5.3720 C.3   110  LEU110      0.0001
    210  CD2       13.9270  -37.3490    4.0550 C.3   110  LEU110      0.0001
    211  N         22.0670  -38.6080   -0.1360 N.3   137  VAL137     -0.1245
    212  CA        21.7550  -37.1960   -0.1930 C.3   137  VAL137      0.1561
    213  C         22.9610  -36.4880    0.6290 C.2   137  VAL137      0.2260
    214  O         23.4150  -35.4660    0.1960 O.2   137  VAL137     -0.2867
    215  CB        20.4440  -36.8940    0.4420 C.3   137  VAL137      0.0252
    216  CG1       20.2200  -35.4020    0.6410 C.3   137  VAL137      0.0019
    217  CG2       19.3330  -37.4610   -0.4660 C.3   137  VAL137      0.0019
    218  N         25.4230  -33.7080   -0.8130 N.3   141  LEU141     -0.1245
    219  CA        25.4890  -32.3770   -0.2380 C.3   141  LEU141      0.1561
    220  C         26.8550  -31.9660    0.3140 C.2   141  LEU141      0.2260
    221  O         27.2080  -30.7820    0.3290 O.2   141  LEU141     -0.2867
    222  CB        24.3960  -32.2470    0.8880 C.3   141  LEU141      0.0270
    223  CG        23.0170  -31.9000    0.4700 C.3   141  LEU141      0.0019
    224  CD1       22.1810  -31.7900    1.6800 C.3   141  LEU141      0.0001
    225  CD2       23.0000  -30.5050   -0.2800 C.3   141  LEU141      0.0001
@<TRIPOS>BOND
     1   126   127    1
     2   126   123    1
     3   127   128    1
     4   122   123    1
     5   111   112    1
     6   123   124    1
     7   113   112    1
     8   113   114    2
     9   112   115    1
    10   128   130   am
    11   128   129    2
    12   124   131   am
    13   124   125    2
    14   131   132    1
    15   115   116    1
    16   100    99    2
    17   118   116   ar
    18   118   120   ar
    19   116   117   ar
    20   106   105    2
    21   117   119   ar
    22   120   121   ar
    23    98    99    1
    24    98   101    1
    25    98    97    1
    26    99   103   am
    27   136   135    1
    28   136   137    1
    29   136   138    1
    30   132   135    1
    31   132   133    1
    32   102   101    1
    33   105   104    1
    34   119   121   ar
    35   133   134    2
    36   103   104    1
    37   104   107    1
    38   139   140    1
    39   143   140    1
    40   143   144    1
    41    92    91    2
    42   140   141    1
    43   218   219    1
    44    76    75    2
    45   107   108    1
    46   217   215    1
    47   109   108    1
    48   146   144    1
    49    91    90    1
    50   225   223    1
    51   108   110    1
    52   219   220    1
    53   219   222    1
    54   212   211    1
    55   212   215    1
    56   212   213    1
    57   145   144    1
    58   214   213    2
    59   220   221    2
    60    85    84    2
    61   215   216    1
    62   223   222    1
    63   223   224    1
    64    74    75    1
    65    74    77    1
    66    74    73    1
    67    75    82   am
    68   141   147   am
    69   141   142    2
    70    78    77    1
    71    78    79    1
    72    80    79    1
    73    80    81    1
    74   147   148    1
    75   153   155   ar
    76   153   152   ar
    77    90    89    1
    78    90    93    1
    79    84    89   am
    80    84    83    1
    81   155   156   ar
    82    82    83    1
    83    83    86    1
    84    93    94    1
    85   148   151    1
    86   148   149    1
    87   152   151    1
    88   152   154   ar
    89   149   150    2
    90   156   154   ar
    91    94    96    1
    92    94    95    1
    93    86    87    1
    94    86    88    1
    95   157   158    1
    96   163   162    1
    97    66    65    2
    98   190   189   ar
    99   190   188   ar
   100   162   164    1
   101   162   161    1
   102   189   187   ar
   103   210   208    1
   104    71    69   ar
   105    71    72   ar
   106   188   186   ar
   107    69    68   ar
   108   187   185   ar
   109   186   185   ar
   110   185   184    1
   111    72    70   ar
   112    65    64    1
   113   161   158    1
   114   158   159    1
   115    64    63    1
   116    64    67    1
   117   184   181    1
   118   208   209    1
   119   208   207    1
   120    68    70   ar
   121    68    67    1
   122   159   160    2
   123   198   196    1
   124   171   169    1
   125   197   196    1
   126   207   204    1
   127   181   182    1
   128   181   180    1
   129   183   182    2
   130   169   170    1
   131   169   166    1
   132   168   167    2
   133   165   166    1
   134   200   199    1
   135   200   201    1
   136   196   195    1
   137   166   167    1
   138   199   193   am
   139   202   201    2
   140   180   174   am
   141   195   192    1
   142   204   205    1
   143   204   203    1
   144   206   205    2
   145    62    60   ar
   146    62    61   ar
   147   193   194    2
   148   193   192    1
   149    43    45   ar
   150    43    41   ar
   151    60    58   ar
   152     8     6    1
   153    45    44   ar
   154   174   175    2
   155   174   173    1
   156   192   191    1
   157    61    59   ar
   158     5     6    1
   159     5     2    1
   160    41    40   ar
   161    51    50    1
   162     7     6    1
   163     1     2    1
   164    58    57   ar
   165    32    30   ar
   166    32    34   ar
   167    30    29   ar
   168   172   173    1
   169   173   176    1
   170    27    26    2
   171   176   177    1
   172     2     3    1
   173    44    42   ar
   174    59    57   ar
   175    50    47    1
   176    34    33   ar
   177    29    28    1
   178    29    31   ar
   179    57    56    1
   180    28    25    1
   181    40    42   ar
   182    40    39    1
   183    16    14    1
   184    26    25    1
   185    26    35   am
   186    33    31   ar
   187   179   177   am
   188    25    24    1
   189    49    48    2
   190     3     4    2
   191   177   178    2
   192    39    36    1
   193    36    35    1
   194    36    37    1
   195    47    48    1
   196    47    46    1
   197    48    52   am
   198    56    53    1
   199    15    14    1
   200    52    53    1
   201    14    13    1
   202    53    54    1
   203    13    10    1
   204    37    38    2
   205    20    19    2
   206    55    54    1
   207    23    21    1
   208     9    10    1
   209    10    11    1
   210    21    18    1
   211    21    22    1
   212    18    19    1
   213    18    17    1
   214    11    12    2
