@<TRIPOS>MOLECULE
tmp/1i3kA01.pdb
 237 231 0 0 0
SMALL
GASTEIGER

@<TRIPOS>ATOM
      1  N         23.6170   11.8800   36.7140 N.3    91  LYS91      -0.1231
      2  CA        23.5410   12.9250   37.6990 C.3    91  LYS91       0.1693
      3  C         24.8510   12.8040   38.4380 C.2    91  LYS91       0.2591
      4  O         25.6880   11.9530   38.1090 O.2    91  LYS91      -0.2718
      5  CB        22.3110   13.0100   38.5790 C.3    91  LYS91       0.0285
      6  CG        21.4940   11.7470   38.7170 C.3    91  LYS91       0.0035
      7  CD        20.4860   11.8910   39.8420 C.3    91  LYS91       0.0206
      8  CE        20.6350   10.8600   40.9550 C.3    91  LYS91       0.1093
      9  NZ        19.5660   10.9810   41.9740 N.3    91  LYS91      -0.1314
     10  N         25.1330   13.6270   39.4030 N.am   92  ALA92      -0.1980
     11  CA        26.4420   13.3070   39.9120 C.3    92  ALA92       0.1597
     12  C         26.5180   12.7900   41.3150 C.2    92  ALA92       0.2287
     13  O         25.8180   13.2520   42.2070 O.2    92  ALA92      -0.2864
     14  CB        27.4940   14.3680   39.6460 C.3    92  ALA92       0.0319
     15  N         17.5590   21.6230   36.3410 N.3   131  SER131     -0.1202
     16  CA        17.8930   21.6850   37.7510 C.3   131  SER131      0.2020
     17  C         18.2400   23.0790   38.2060 C.2   131  SER131      0.2619
     18  O         18.7100   23.8700   37.4150 O.2   131  SER131     -0.2717
     19  CB        19.1310   20.7930   37.9430 C.3   131  SER131      0.2103
     20  OG        19.8350   21.0620   39.1470 O.3   131  SER131     -0.2182
     21  N         18.0460   23.3390   39.4990 N.am  132  ALA132     -0.1965
     22  CA        18.3980   24.6360   40.0810 C.3   132  ALA132      0.1728
     23  C         19.9200   24.8930   39.9550 C.2   132  ALA132      0.2616
     24  O         20.4340   26.0210   40.1180 O.2   132  ALA132     -0.2715
     25  CB        17.8920   24.7060   41.5170 C.3   132  ALA132      0.0334
     26  N         20.6870   23.8390   39.6410 N.am  133  THR133     -0.1951
     27  CA        22.1100   24.0230   39.4760 C.3   133  THR133      0.1897
     28  C         22.4650   24.9240   38.3150 C.2   133  THR133      0.2313
     29  O         23.5470   25.5020   38.2970 O.2   133  THR133     -0.2863
     30  CB        22.9290   22.7140   39.3210 C.3   133  THR133      0.1794
     31  OG1       22.4800   22.0230   38.1740 O.3   133  THR133     -0.2208
     32  CG2       22.7870   21.8530   40.5660 C.3   133  THR133      0.0378
     33  N         28.1230   18.4960   35.2140 N.3   156  TYR156     -0.1241
     34  CA        26.7390   18.0780   35.2530 C.3   156  TYR156      0.1605
     35  C         25.8230   19.3010   35.0580 C.2   156  TYR156      0.2264
     36  O         24.8940   19.3090   34.2620 O.2   156  TYR156     -0.2867
     37  CB        26.4310   17.4090   36.6250 C.3   156  TYR156      0.0534
     38  CG        24.9490   17.3340   36.8960 C.ar  156  TYR156     -0.0201
     39  CD1       24.3420   18.2130   37.7950 C.ar  156  TYR156     -0.0009
     40  CD2       24.1530   16.3940   36.2320 C.ar  156  TYR156     -0.0009
     41  CE1       22.9680   18.1390   38.0260 C.ar  156  TYR156      0.0417
     42  CE2       22.7800   16.2970   36.4580 C.ar  156  TYR156      0.0417
     43  CZ        22.1960   17.1770   37.3700 C.ar  156  TYR156      0.1957
     44  OH        20.8480   17.0970   37.5910 O.3   156  TYR156     -0.2866
     45  N         14.2400   21.4360   38.6990 N.3   184  TYR184     -0.1227
     46  CA        13.9100   20.9130   40.0190 C.3   184  TYR184      0.1736
     47  C         14.8550   21.4380   41.0960 C.2   184  TYR184      0.2595
     48  O         16.0130   21.7250   40.8400 O.2   184  TYR184     -0.2718
     49  CB        14.1350   19.3790   40.0820 C.3   184  TYR184      0.0548
     50  CG        13.5950   18.5450   38.9240 C.ar  184  TYR184     -0.0200
     51  CD1       12.4450   18.9320   38.2300 C.ar  184  TYR184     -0.0009
     52  CD2       14.2080   17.3350   38.5830 C.ar  184  TYR184     -0.0009
     53  CE1       11.9140   18.1720   37.1850 C.ar  184  TYR184      0.0417
     54  CE2       13.6860   16.5570   37.5500 C.ar  184  TYR184      0.0417
     55  CZ        12.5620   16.9850   36.8380 C.ar  184  TYR184      0.1957
     56  OH        12.0690   16.2470   35.7890 O.3   184  TYR184     -0.2866
     57  N         14.3510   21.5280   42.3270 N.am  185  PHE185     -0.1962
     58  CA        15.1710   21.9080   43.4570 C.3   185  PHE185      0.1771
     59  C         15.6880   20.6160   44.1160 C.2   185  PHE185      0.2620
     60  O         16.3060   19.8310   43.4290 O.2   185  PHE185     -0.2715
     61  CB        14.5030   22.9420   44.3880 C.3   185  PHE185      0.0574
     62  CG        14.6820   24.2980   43.7210 C.ar  185  PHE185     -0.0200
     63  CD1       15.5270   25.2560   44.2830 C.ar  185  PHE185     -0.0042
     64  CD2       14.0470   24.5990   42.5160 C.ar  185  PHE185     -0.0042
     65  CE1       15.7280   26.4900   43.6640 C.ar  185  PHE185     -0.0003
     66  CE2       14.2290   25.8330   41.8890 C.ar  185  PHE185     -0.0003
     67  CZ        15.0790   26.7790   42.4620 C.ar  185  PHE185     -0.0000
     68  N         15.4440   20.3160   45.3970 N.am  186  ASN186     -0.1959
     69  CA        15.9720   19.0580   45.9840 C.3   186  ASN186      0.1808
     70  C         14.8580   18.0560   46.2750 C.2   186  ASN186      0.2500
     71  O         14.2070   18.0840   47.3310 O.2   186  ASN186     -0.2727
     72  CB        16.7770   19.3770   47.2620 C.3   186  ASN186      0.1195
     73  CG        18.0590   20.1110   46.9190 C.2   186  ASN186      0.2630
     74  OD1       18.0230   21.1650   46.2730 O.2   186  ASN186     -0.2716
     75  ND2       19.2030   19.5470   47.2600 N.am  186  ASN186     -0.0877
     76  N         14.5690   17.1590   45.3260 N.am  187  PRO187     -0.2504
     77  CA        13.5020   16.1850   45.5490 C.3   187  PRO187      0.1487
     78  C         13.7970   15.2190   46.7030 C.2   187  PRO187      0.2276
     79  O         14.9140   14.7340   46.8490 O.2   187  PRO187     -0.2865
     80  CB        13.4240   15.3360   44.2720 C.3   187  PRO187      0.0556
     81  CG        14.4540   15.8850   43.2990 C.2   187  PRO187     -0.0078
     82  CD        15.2230   16.9870   44.0020 C.2   187  PRO187      0.0634
     83  N         25.2000    6.7050   49.8090 N.2   204  PRO204     -0.2571
     84  CA        24.4690    7.8210   49.2540 C.3   204  PRO204      0.2026
     85  C         25.3010    9.1020   49.1990 C.2   204  PRO204      0.2683
     86  O         25.9960    9.4490   50.1570 O.2   204  PRO204     -0.2709
     87  CB        23.2340    8.0100   50.1390 C.2   204  PRO204      0.0085
     88  CG        23.2480    6.8890   51.1740 C.2   204  PRO204      0.0180
     89  CD        24.5880    6.1830   51.0520 C.2   204  PRO204      0.0938
     90  N         25.2220    9.8060   48.0680 N.am  205  ASN205     -0.1953
     91  CA        25.9360   11.0620   47.8880 C.3   205  ASN205      0.1820
     92  C         25.0750   12.2440   48.3290 C.2   205  ASN205      0.2621
     93  O         25.5910   13.3180   48.6000 O.2   205  ASN205     -0.2715
     94  CB        26.4060   11.2520   46.4470 C.3   205  ASN205      0.1195
     95  CG        27.0770    9.9920   45.9480 C.2   205  ASN205      0.2630
     96  OD1       26.5330    9.2330   45.1240 O.2   205  ASN205     -0.2716
     97  ND2       28.2610    9.7540   46.4930 N.am  205  ASN205     -0.0877
     98  N         23.7550   12.0400   48.3890 N.am  206  ASN206     -0.1958
     99  CA        22.8210   13.0840   48.7890 C.3   206  ASN206      0.1819
    100  C         22.4010   12.9450   50.2320 C.2   206  ASN206      0.2621
    101  O         22.4550   11.8870   50.8280 O.2   206  ASN206     -0.2715
    102  CB        21.6290   13.3290   47.8300 C.3   206  ASN206      0.1195
    103  CG        20.8490   12.0780   47.4760 C.2   206  ASN206      0.2630
    104  OD1       21.4500   11.0530   47.1330 O.2   206  ASN206     -0.2716
    105  ND2       19.5110   12.1430   47.5180 N.am  206  ASN206     -0.0877
    106  N         21.9710   14.0480   50.8040 N.am  207  LEU207     -0.1977
    107  CA        21.6170   14.1000   52.1950 C.3   207  LEU207      0.1596
    108  C         20.6020   13.1400   52.7980 C.2   207  LEU207      0.2287
    109  O         20.8730   12.3900   53.7360 O.2   207  LEU207     -0.2864
    110  CB        21.1530   15.5380   52.5180 C.3   207  LEU207      0.0297
    111  CG        20.7910   15.7280   53.9910 C.3   207  LEU207      0.0022
    112  CD1       22.0380   15.5740   54.8750 C.3   207  LEU207      0.0001
    113  CD2       20.2010   17.1350   54.1670 C.3   207  LEU207      0.0001
    114  N         21.0510    9.4080   53.1560 N.3   210  TYR210     -0.1241
    115  CA        22.0610    9.1540   54.1420 C.3   210  TYR210      0.1605
    116  C         21.4100    9.2730   55.5100 C.2   210  TYR210      0.2264
    117  O         21.5450    8.4030   56.3610 O.2   210  TYR210     -0.2867
    118  CB        23.2650   10.0860   53.9920 C.3   210  TYR210      0.0534
    119  CG        24.5210    9.4770   54.5710 C.ar  210  TYR210     -0.0201
    120  CD1       24.6790    9.3920   55.9560 C.ar  210  TYR210     -0.0009
    121  CD2       25.5400    8.9760   53.7570 C.ar  210  TYR210     -0.0009
    122  CE1       25.8180    8.8330   56.5370 C.ar  210  TYR210      0.0417
    123  CE2       26.6970    8.4260   54.3120 C.ar  210  TYR210      0.0417
    124  CZ        26.8200    8.3420   55.7020 C.ar  210  TYR210      0.1957
    125  OH        27.9360    7.7970   56.2900 O.3   210  TYR210     -0.2866
    126  N         25.6610   10.7720   60.5810 N.3   222  LEU222     -0.1231
    127  CA        25.6470   11.5710   59.3740 C.3   222  LEU222      0.1693
    128  C         26.8770   12.4470   59.3610 C.2   222  LEU222      0.2592
    129  O         27.2350   13.0200   60.3880 O.2   222  LEU222     -0.2718
    130  CB        24.4130   12.5050   59.3220 C.3   222  LEU222      0.0284
    131  CG        24.5410   13.6510   58.2910 C.3   222  LEU222      0.0019
    132  CD1       24.3550   13.1240   56.8590 C.3   222  LEU222      0.0001
    133  CD2       23.5030   14.7290   58.5550 C.3   222  LEU222      0.0001
    134  N         27.5160   12.5780   58.1970 N.am  223  ASN223     -0.1960
    135  CA        28.6640   13.4480   58.0690 C.3   223  ASN223      0.1819
    136  C         28.1150   14.7540   57.5450 C.2   223  ASN223      0.2621
    137  O         27.5450   14.7540   56.4570 O.2   223  ASN223     -0.2715
    138  CB        29.7580   12.8880   57.1270 C.3   223  ASN223      0.1195
    139  CG        30.3170   11.5630   57.6580 C.2   223  ASN223      0.2630
    140  OD1       30.3630   10.5410   56.9480 O.2   223  ASN223     -0.2716
    141  ND2       30.7170   11.5600   58.9340 N.am  223  ASN223     -0.0877
    142  N         28.2420   15.8220   58.3320 N.am  224  VAL224     -0.1963
    143  CA        27.7330   17.1150   57.9090 C.3   224  VAL224      0.1727
    144  C         28.8510   17.8540   57.2080 C.2   224  VAL224      0.2616
    145  O         29.8980   18.1070   57.8040 O.2   224  VAL224     -0.2715
    146  CB        27.1270   17.9020   59.0710 C.3   224  VAL224      0.0290
    147  CG1       26.7810   19.3050   58.5950 C.3   224  VAL224      0.0023
    148  CG2       25.8700   17.2220   59.5960 C.3   224  VAL224      0.0023
    149  N         28.6490   18.1910   55.9300 N.am  225  PHE225     -0.1974
    150  CA        29.6820   18.8760   55.1500 C.3   225  PHE225      0.1639
    151  C         29.8390   20.3600   55.4110 C.2   225  PHE225      0.2290
    152  O         29.3650   21.1820   54.6220 O.2   225  PHE225     -0.2864
    153  CB        29.4920   18.7200   53.6280 C.3   225  PHE225      0.0560
    154  CG        29.3350   17.2920   53.1950 C.ar  225  PHE225     -0.0200
    155  CD1       28.5850   16.9780   52.0630 C.ar  225  PHE225     -0.0042
    156  CD2       29.9300   16.2630   53.9270 C.ar  225  PHE225     -0.0042
    157  CE1       28.4360   15.6510   51.6580 C.ar  225  PHE225     -0.0003
    158  CE2       29.7880   14.9350   53.5300 C.ar  225  PHE225     -0.0003
    159  CZ        29.0400   14.6300   52.3910 C.ar  225  PHE225     -0.0000
    160  N         28.9640   27.9250   56.9470 N.3   229  TYR229     -0.1241
    161  CA        28.4440   28.6830   55.8230 C.3   229  TYR229      0.1605
    162  C         27.7130   29.8990   56.3510 C.2   229  TYR229      0.2264
    163  O         27.3620   29.9370   57.5150 O.2   229  TYR229     -0.2867
    164  CB        27.4730   27.8730   54.9430 C.3   229  TYR229      0.0534
    165  CG        28.2090   26.8920   54.0860 C.ar  229  TYR229     -0.0201
    166  CD1       28.8530   27.3160   52.9300 C.ar  229  TYR229     -0.0009
    167  CD2       28.2830   25.5410   54.4270 C.ar  229  TYR229     -0.0009
    168  CE1       29.5370   26.4000   52.1290 C.ar  229  TYR229      0.0417
    169  CE2       28.9630   24.6120   53.6400 C.ar  229  TYR229      0.0417
    170  CZ        29.6040   25.0520   52.4830 C.ar  229  TYR229      0.1957
    171  OH        30.2990   24.1760   51.6650 O.3   229  TYR229     -0.2866
    172  N         24.3860   23.9960   55.2220 N.3   236  GLY236     -0.1225
    173  CA        23.7430   24.3010   53.9370 C.3   236  GLY236      0.1811
    174  C         22.2260   24.3300   53.9850 C.2   236  GLY236      0.2280
    175  O         21.5840   23.5620   54.6970 O.2   236  GLY236     -0.2866
    176  N         18.6420   24.2720   51.7030 N.3   238  ARG238     -0.1245
    177  CA        18.0640   23.8710   50.4240 C.3   238  ARG238      0.1563
    178  C         16.5640   23.8120   50.4450 C.2   238  ARG238      0.2260
    179  O         15.9500   23.6450   51.4870 O.2   238  ARG238     -0.2867
    180  CB        18.5420   22.4540   50.0660 C.3   238  ARG238      0.0307
    181  CG        20.0600   22.2800   50.0110 C.3   238  ARG238      0.0489
    182  CD        20.6430   22.9270   48.7670 C.3   238  ARG238      0.2205
    183  NE        22.0700   22.7010   48.6610 N.pl3 238  ARG238     -0.0865
    184  CZ        23.0340   23.5150   49.1000 C.cat 238  ARG238      0.5346
    185  NH1       22.7890   24.6670   49.7070 N.pl3 238  ARG238      0.1354
    186  NH2       24.3020   23.1690   48.9090 N.pl3 238  ARG238      0.1354
    187  N         13.7890   21.6120   49.8080 N.3   240  TYR240     -0.1241
    188  CA        13.4180   20.1970   49.6530 C.3   240  TYR240      0.1605
    189  C         11.9940   20.1090   49.1640 C.2   240  TYR240      0.2264
    190  O         11.1210   20.8000   49.6720 O.2   240  TYR240     -0.2867
    191  CB        13.6210   19.4740   51.0000 C.3   240  TYR240      0.0534
    192  CG        15.1040   19.4510   51.3310 C.ar  240  TYR240     -0.0201
    193  CD1       15.9590   18.5530   50.6820 C.ar  240  TYR240     -0.0009
    194  CD2       15.6660   20.3180   52.2720 C.ar  240  TYR240     -0.0009
    195  CE1       17.3260   18.5290   50.9360 C.ar  240  TYR240      0.0417
    196  CE2       17.0340   20.3030   52.5490 C.ar  240  TYR240      0.0417
    197  CZ        17.8690   19.4110   51.8740 C.ar  240  TYR240      0.1957
    198  OH        19.2060   19.3980   52.1110 O.3   240  TYR240     -0.2866
    199  N         20.6940   21.6390   56.9310 N.3   276  VAL276     -0.1245
    200  CA        21.0550   20.2470   57.1600 C.3   276  VAL276      0.1561
    201  C         20.5450   19.8020   58.5450 C.2   276  VAL276      0.2260
    202  O         19.8330   18.7960   58.7130 O.2   276  VAL276     -0.2867
    203  CB        22.5610   20.0920   56.9880 C.3   276  VAL276      0.0252
    204  CG1       22.9630   18.6690   57.4020 C.3   276  VAL276      0.0019
    205  CG2       22.9960   20.3730   55.5280 C.3   276  VAL276      0.0019
    206  N         32.1750   20.3430   51.2890 N.3   299  ARG299     -0.1245
    207  CA        32.2120   19.5220   50.0900 C.3   299  ARG299      0.1563
    208  C         32.4440   20.4600   48.9490 C.2   299  ARG299      0.2260
    209  O         31.7240   21.4510   48.8040 O.2   299  ARG299     -0.2867
    210  CB        30.8940   18.8080   49.8750 C.3   299  ARG299      0.0307
    211  CG        30.9140   17.9280   48.6340 C.3   299  ARG299      0.0489
    212  CD        29.6720   17.0390   48.5680 C.3   299  ARG299      0.2205
    213  NE        28.4160   17.7840   48.4790 N.pl3 299  ARG299     -0.0865
    214  CZ        27.1860   17.2400   48.4560 C.cat 299  ARG299      0.5346
    215  NH1       26.9960   15.9370   48.5210 N.pl3 299  ARG299      0.1354
    216  NH2       26.1110   18.0160   48.3620 N.pl3 299  ARG299      0.1354
    217  N         29.9180   23.1430   46.9810 N.3   302  ASP302     -0.1225
    218  CA        28.6290   23.2920   47.6370 C.3   302  ASP302      0.1805
    219  C         28.2630   24.7390   47.8310 C.2   302  ASP302      0.2597
    220  O         29.1210   25.5130   48.2330 O.2   302  ASP302     -0.2718
    221  CB        28.6600   22.6670   49.0300 C.3   302  ASP302      0.1424
    222  CG        28.0810   21.3080   49.0590 C.2   302  ASP302      0.3668
    223  OD1       27.6570   20.7410   48.0670 O.co2 302  ASP302     -0.2456
    224  OD2       28.1000   20.8170   50.2650 O.co2 302  ASP302     -0.2456
    225  N         27.0040   25.0950   47.6000 N.am  303  VAL303     -0.1980
    226  CA        26.6380   26.4770   47.8150 C.3   303  VAL303      0.1595
    227  C         26.0960   26.6270   49.2120 C.2   303  VAL303      0.2287
    228  O         25.6760   25.6420   49.7990 O.2   303  VAL303     -0.2864
    229  CB        25.6750   27.0370   46.7770 C.3   303  VAL303      0.0276
    230  CG1       26.1170   26.6560   45.3680 C.3   303  VAL303      0.0022
    231  CG2       24.2620   26.5550   47.0430 C.3   303  VAL303      0.0022
    232  N         20.2090   27.7790   48.7990 N.3   306  CYS306     -0.1235
    233  CA        19.5020   27.7960   47.5490 C.3   306  CYS306      0.1677
    234  C         18.0510   27.4360   47.8330 C.2   306  CYS306      0.2270
    235  O         17.7120   26.4740   48.5380 O.2   306  CYS306     -0.2867
    236  CB        20.2270   26.7650   46.6380 C.3   306  CYS306      0.0956
    237  SG        19.4010   26.3370   45.1030 S.3   306  CYS306     -0.0801
@<TRIPOS>BOND
     1    36    35    2
     2    35    34    1
     3    33    34    1
     4    34    37    1
     5    56    55    1
     6    40    42   ar
     7    40    38   ar
     8    15    16    1
     9    42    43   ar
    10    37    38    1
    11     1     2    1
    12    55    53   ar
    13    55    54   ar
    14    38    39   ar
    15    53    51   ar
    16    43    44    1
    17    43    41   ar
    18    18    17    2
    19    54    52   ar
    20     2     3    1
    21     2     5    1
    22    16    19    1
    23    16    17    1
    24    39    41   ar
    25    19    20    1
    26     4     3    2
    27    31    30    1
    28    17    21   am
    29    51    50   ar
    30    29    28    2
    31    28    27    1
    32     3    10   am
    33     5     6    1
    34    52    50   ar
    35    45    46    1
    36     6     7    1
    37    50    49    1
    38    30    27    1
    39    30    32    1
    40    10    11    1
    41    27    26    1
    42    21    22    1
    43    26    23   am
    44    14    11    1
    45     7     8    1
    46    11    12    1
    47    23    22    1
    48    23    24    2
    49    46    49    1
    50    46    47    1
    51    22    25    1
    52    48    47    2
    53     8     9    1
    54    47    57   am
    55    12    13    2
    56    66    67   ar
    57    66    64   ar
    58    57    58    1
    59    67    65   ar
    60    64    62   ar
    61    81    82    2
    62    81    80    1
    63    60    59    2
    64    58    59    1
    65    58    61    1
    66    65    63   ar
    67    62    63   ar
    68    62    61    1
    69    82    76    1
    70    59    68   am
    71    80    77    1
    72   237   236    1
    73    96    95    2
    74    76    77    1
    75    76    70   am
    76   230   229    1
    77    68    69    1
    78    77    78    1
    79    95    94    1
    80    95    97   am
    81    69    70    1
    82    69    72    1
    83    74    73    2
    84    70    71    2
    85    94    91    1
    86   236   233    1
    87    78    79    2
    88   229   231    1
    89   229   226    1
    90    73    75   am
    91    73    72    1
    92   217   218    1
    93   104   103    2
    94   103   105   am
    95   103   102    1
    96   233   234    1
    97   233   232    1
    98   225   226    1
    99   225   219   am
   100   218   219    1
   101   218   221    1
   102   226   227    1
   103   102    99    1
   104   219   220    2
   105   234   235    2
   106    91    90    1
   107    91    92    1
   108   223   222   ar
   109    90    85   am
   110    92    98   am
   111    92    93    2
   112   216   214    1
   113    98    99    1
   114   214   213    2
   115   214   215    1
   116   213   212    1
   117   212   211    1
   118   211   210    1
   119   183   182    1
   120   183   184    2
   121   182   181    1
   122    99   100    1
   123   209   208    2
   124   186   184    1
   125   208   207    1
   126   221   222    1
   127   222   224   ar
   128   184   185    1
   129   189   188    1
   130   189   190    2
   131    85    84    1
   132    85    86    2
   133   227   228    2
   134    84    83    1
   135    84    87    1
   136   188   187    1
   137   188   191    1
   138    83    89    2
   139   210   207    1
   140   181   180    1
   141   180   177    1
   142   207   206    1
   143    87    88    2
   144   100   106   am
   145   100   101    2
   146   177   178    1
   147   177   176    1
   148   178   179    2
   149   193   195   ar
   150   193   192   ar
   151   106   107    1
   152   195   197   ar
   153   191   192    1
   154    89    88    1
   155   192   194   ar
   156   157   155   ar
   157   157   159   ar
   158   171   170    1
   159   197   198    1
   160   197   196   ar
   161   155   154   ar
   162   168   170   ar
   163   168   166   ar
   164   107   110    1
   165   107   108    1
   166   194   196   ar
   167   159   158   ar
   168   170   169   ar
   169   110   111    1
   170   108   109    2
   171   166   165   ar
   172   114   115    1
   173   154   153    1
   174   154   156   ar
   175   158   156   ar
   176   153   150    1
   177   169   167   ar
   178   121   123   ar
   179   121   119   ar
   180   173   174    1
   181   173   172    1
   182   174   175    2
   183   111   113    1
   184   111   112    1
   185   118   115    1
   186   118   119    1
   187   165   167   ar
   188   165   164    1
   189   115   116    1
   190   123   124   ar
   191   119   120   ar
   192   152   151    2
   193   164   161    1
   194   150   151    1
   195   150   149    1
   196   116   117    2
   197   205   203    1
   198   124   125    1
   199   124   122   ar
   200   161   162    1
   201   161   160    1
   202   149   144   am
   203   120   122   ar
   204   162   163    2
   205   137   136    2
   206   132   131    1
   207   199   200    1
   208   140   139    2
   209   203   200    1
   210   203   204    1
   211   138   139    1
   212   138   135    1
   213   200   201    1
   214   144   145    2
   215   144   143    1
   216   136   135    1
   217   136   142   am
   218   139   141   am
   219   143   142    1
   220   143   146    1
   221   135   134    1
   222   134   128   am
   223   131   133    1
   224   131   130    1
   225   201   202    2
   226   147   146    1
   227   146   148    1
   228   130   127    1
   229   128   127    1
   230   128   129    2
   231   127   126    1
