@<TRIPOS>MOLECULE
tmp/1i3mA01.pdb
 221 211 0 0 0
SMALL
GASTEIGER

@<TRIPOS>ATOM
      1  N         23.5880   11.8480   36.6170 N.3    91  LYS91      -0.1231
      2  CA        23.4560   12.8890   37.5930 C.3    91  LYS91       0.1693
      3  C         24.6870   12.9100   38.4550 C.2    91  LYS91       0.2591
      4  O         25.4350   11.9340   38.5110 O.2    91  LYS91      -0.2718
      5  CB        22.1280   13.0560   38.2970 C.3    91  LYS91       0.0285
      6  CG        21.5100   11.7820   38.8000 C.3    91  LYS91       0.0035
      7  CD        20.5490   12.0560   39.9290 C.3    91  LYS91       0.0206
      8  CE        20.4710   10.9060   40.9200 C.3    91  LYS91       0.1093
      9  NZ        19.4450   11.0880   41.9700 N.3    91  LYS91      -0.1314
     10  N         24.9820   14.0440   39.0430 N.am   92  ALA92      -0.1980
     11  CA        26.1970   14.0210   39.8040 C.3    92  ALA92       0.1597
     12  C         26.0650   13.1700   41.0400 C.2    92  ALA92       0.2287
     13  O         25.0650   13.2100   41.7610 O.2    92  ALA92      -0.2864
     14  CB        26.8150   15.3820   40.0600 C.3    92  ALA92       0.0319
     15  N         28.9090   13.2860   42.5540 N.3    94  GLY94      -0.1225
     16  CA        30.0850   14.1030   42.8760 C.3    94  GLY94       0.1811
     17  C         31.2010   13.8910   41.8220 C.2    94  GLY94       0.2280
     18  O         32.2900   14.4950   41.8670 O.2    94  GLY94      -0.2866
     19  N         17.4980   21.5200   36.3270 N.3   131  SER131     -0.1217
     20  CA        17.8100   21.5450   37.7520 C.3   131  SER131      0.1889
     21  C         18.2150   22.9200   38.1940 C.2   131  SER131      0.2288
     22  O         18.6930   23.7130   37.3940 O.2   131  SER131     -0.2866
     23  CB        18.9650   20.5480   37.9970 C.3   131  SER131      0.2089
     24  OG        19.9110   20.9150   38.9850 O.3   131  SER131     -0.2183
     25  N         20.6800   23.6390   39.6330 N.3   133  THR133     -0.1218
     26  CA        22.1040   23.8440   39.4880 C.3   133  THR133      0.1862
     27  C         22.4280   24.7540   38.3190 C.2   133  THR133      0.2287
     28  O         23.5030   25.3550   38.2720 O.2   133  THR133     -0.2866
     29  CB        22.9150   22.5270   39.3240 C.3   133  THR133      0.1770
     30  OG1       22.4660   21.8480   38.1660 O.3   133  THR133     -0.2211
     31  CG2       22.7840   21.6520   40.5620 C.3   133  THR133      0.0375
     32  N         29.9750   22.4950   37.5980 N.3   154  ASN154     -0.1240
     33  CA        30.4940   21.2870   37.0830 C.3   154  ASN154      0.1653
     34  C         29.9090   20.8800   35.7450 C.2   154  ASN154      0.2266
     35  O         28.9510   21.4780   35.2300 O.2   154  ASN154     -0.2867
     36  CB        30.0970   20.2880   38.1820 C.3   154  ASN154      0.1155
     37  CG        28.5790   20.1610   38.2620 C.2   154  ASN154      0.2627
     38  OD1       28.0360   19.1790   37.7810 O.2   154  ASN154     -0.2716
     39  ND2       27.8700   21.1490   38.8160 N.am  154  ASN154     -0.0877
     40  N         28.1440   18.4140   35.1160 N.3   156  TYR156     -0.1241
     41  CA        26.7540   18.0330   35.1740 C.3   156  TYR156      0.1605
     42  C         25.8220   19.2420   34.9920 C.2   156  TYR156      0.2264
     43  O         24.8600   19.2370   34.2190 O.2   156  TYR156     -0.2867
     44  CB        26.4290   17.2950   36.5120 C.3   156  TYR156      0.0534
     45  CG        24.9440   17.2050   36.7900 C.ar  156  TYR156     -0.0201
     46  CD1       24.3370   18.0030   37.7650 C.ar  156  TYR156     -0.0009
     47  CD2       24.1460   16.3330   36.0410 C.ar  156  TYR156     -0.0009
     48  CE1       22.9630   17.9210   38.0000 C.ar  156  TYR156      0.0417
     49  CE2       22.7700   16.2290   36.2610 C.ar  156  TYR156      0.0417
     50  CZ        22.1910   17.0200   37.2570 C.ar  156  TYR156      0.1957
     51  OH        20.8380   16.9120   37.4790 O.3   156  TYR156     -0.2866
     52  N         15.4010   20.2060   45.3880 N.3   186  ASN186     -0.1240
     53  CA        15.9440   18.9690   45.9840 C.3   186  ASN186      0.1653
     54  C         14.8530   17.9620   46.2650 C.2   186  ASN186      0.2266
     55  O         14.2070   18.0090   47.3030 O.2   186  ASN186     -0.2867
     56  CB        16.7770   19.2680   47.2500 C.3   186  ASN186      0.1155
     57  CG        18.0450   20.0410   46.9630 C.2   186  ASN186      0.2627
     58  OD1       18.0020   21.1200   46.3650 O.2   186  ASN186     -0.2716
     59  ND2       19.1940   19.5150   47.3250 N.am  186  ASN186     -0.0877
     60  N         25.2500    6.7560   49.9150 N.2   204  PRO204     -0.2571
     61  CA        24.5280    7.8400   49.2960 C.3   204  PRO204      0.2026
     62  C         25.3190    9.1310   49.3020 C.2   204  PRO204      0.2683
     63  O         25.9970    9.4560   50.2650 O.2   204  PRO204     -0.2709
     64  CB        23.2360    7.9970   50.0580 C.2   204  PRO204      0.0085
     65  CG        23.2190    6.9010   51.1300 C.2   204  PRO204      0.0180
     66  CD        24.5750    6.2240   51.1250 C.2   204  PRO204      0.0938
     67  N         25.2320    9.8590   48.1920 N.am  205  ASN205     -0.1953
     68  CA        25.9250   11.1310   48.0280 C.3   205  ASN205      0.1820
     69  C         25.0500   12.2930   48.4990 C.2   205  ASN205      0.2621
     70  O         25.5240   13.3620   48.8780 O.2   205  ASN205     -0.2715
     71  CB        26.2990   11.3020   46.5430 C.3   205  ASN205      0.1195
     72  CG        26.9450   10.0650   45.9570 C.2   205  ASN205      0.2630
     73  OD1       26.5200    9.5140   44.9360 O.2   205  ASN205     -0.2716
     74  ND2       28.0150    9.6440   46.6030 N.am  205  ASN205     -0.0877
     75  N         23.7510   12.0690   48.4630 N.am  206  ASN206     -0.1958
     76  CA        22.8030   13.0740   48.8610 C.3   206  ASN206      0.1819
     77  C         22.4030   12.9440   50.3010 C.2   206  ASN206      0.2621
     78  O         22.4990   11.9010   50.9280 O.2   206  ASN206     -0.2715
     79  CB        21.6320   13.2620   47.8740 C.3   206  ASN206      0.1195
     80  CG        20.8180   12.0160   47.6440 C.2   206  ASN206      0.2630
     81  OD1       21.3030   10.9100   47.8630 O.2   206  ASN206     -0.2716
     82  ND2       19.5670   12.1750   47.2370 N.am  206  ASN206     -0.0877
     83  N         21.9370   14.0510   50.8380 N.am  207  LEU207     -0.1977
     84  CA        21.5850   14.1460   52.2270 C.3   207  LEU207      0.1596
     85  C         20.5820   13.1890   52.7990 C.2   207  LEU207      0.2287
     86  O         20.8710   12.4360   53.7270 O.2   207  LEU207     -0.2864
     87  CB        21.0700   15.5800   52.5400 C.3   207  LEU207      0.0297
     88  CG        20.7440   15.7740   54.0160 C.3   207  LEU207      0.0022
     89  CD1       22.0020   15.5420   54.8600 C.3   207  LEU207      0.0001
     90  CD2       20.1990   17.1880   54.2380 C.3   207  LEU207      0.0001
     91  N         21.0980    9.4120   53.1990 N.3   210  TYR210     -0.1241
     92  CA        22.1050    9.1660   54.1870 C.3   210  TYR210      0.1605
     93  C         21.4340    9.3000   55.5380 C.2   210  TYR210      0.2264
     94  O         21.5600    8.4450   56.3960 O.2   210  TYR210     -0.2867
     95  CB        23.3340   10.0580   54.0580 C.3   210  TYR210      0.0534
     96  CG        24.5690    9.4460   54.6760 C.ar  210  TYR210     -0.0201
     97  CD1       24.6910    9.3750   56.0630 C.ar  210  TYR210     -0.0009
     98  CD2       25.6210    8.9510   53.9060 C.ar  210  TYR210     -0.0009
     99  CE1       25.8170    8.8280   56.6790 C.ar  210  TYR210      0.0417
    100  CE2       26.7630    8.4110   54.4970 C.ar  210  TYR210      0.0417
    101  CZ        26.8460    8.3270   55.8870 C.ar  210  TYR210      0.1957
    102  OH        27.9540    7.7800   56.4930 O.3   210  TYR210     -0.2866
    103  N         25.6400   10.8640   60.6430 N.3   222  LEU222     -0.1231
    104  CA        25.6430   11.6960   59.4550 C.3   222  LEU222      0.1693
    105  C         26.8990   12.5550   59.4620 C.2   222  LEU222      0.2592
    106  O         27.2670   13.1030   60.4980 O.2   222  LEU222     -0.2718
    107  CB        24.4140   12.6280   59.4170 C.3   222  LEU222      0.0284
    108  CG        24.5390   13.7550   58.3740 C.3   222  LEU222      0.0019
    109  CD1       24.3450   13.1840   56.9540 C.3   222  LEU222      0.0001
    110  CD2       23.4440   14.7750   58.6320 C.3   222  LEU222      0.0001
    111  N         27.5710   12.6540   58.2970 N.am  223  ASN223     -0.1960
    112  CA        28.7350   13.4910   58.1430 C.3   223  ASN223      0.1819
    113  C         28.1790   14.7970   57.6000 C.2   223  ASN223      0.2621
    114  O         27.6320   14.8170   56.4960 O.2   223  ASN223     -0.2715
    115  CB        29.7850   12.9130   57.1800 C.3   223  ASN223      0.1195
    116  CG        30.5310   11.7480   57.8070 C.2   223  ASN223      0.2630
    117  OD1       31.1250   10.9300   57.1080 O.2   223  ASN223     -0.2716
    118  ND2       30.5020   11.6630   59.1290 N.am  223  ASN223     -0.0877
    119  N         28.2460   15.8490   58.3920 N.am  224  VAL224     -0.1963
    120  CA        27.7160   17.1340   57.9520 C.3   224  VAL224      0.1727
    121  C         28.8300   17.8760   57.2640 C.2   224  VAL224      0.2616
    122  O         29.8770   18.1200   57.8610 O.2   224  VAL224     -0.2715
    123  CB        27.1440   17.9190   59.1260 C.3   224  VAL224      0.0290
    124  CG1       26.8940   19.3560   58.6910 C.3   224  VAL224      0.0023
    125  CG2       25.8830   17.2630   59.6930 C.3   224  VAL224      0.0023
    126  N         28.6140   18.2490   55.9850 N.am  225  PHE225     -0.1974
    127  CA        29.6370   18.9240   55.1860 C.3   225  PHE225      0.1639
    128  C         29.8400   20.3970   55.4510 C.2   225  PHE225      0.2290
    129  O         29.4840   21.2410   54.6280 O.2   225  PHE225     -0.2864
    130  CB        29.3720   18.7790   53.6760 C.3   225  PHE225      0.0560
    131  CG        29.2410   17.3430   53.2450 C.ar  225  PHE225     -0.0200
    132  CD1       28.5150   17.0190   52.0960 C.ar  225  PHE225     -0.0042
    133  CD2       29.8570   16.3260   53.9860 C.ar  225  PHE225     -0.0042
    134  CE1       28.3800   15.6950   51.6760 C.ar  225  PHE225     -0.0003
    135  CE2       29.7330   14.9970   53.5790 C.ar  225  PHE225     -0.0003
    136  CZ        28.9900   14.6900   52.4300 C.ar  225  PHE225     -0.0000
    137  N         28.8910   27.9620   56.9930 N.3   229  TYR229     -0.1241
    138  CA        28.3950   28.7510   55.8940 C.3   229  TYR229      0.1605
    139  C         27.6560   29.9560   56.4510 C.2   229  TYR229      0.2264
    140  O         27.2990   29.9620   57.6090 O.2   229  TYR229     -0.2867
    141  CB        27.4440   27.9440   54.9740 C.3   229  TYR229      0.0534
    142  CG        28.1910   26.9530   54.1320 C.ar  229  TYR229     -0.0201
    143  CD1       28.8610   27.3660   52.9870 C.ar  229  TYR229     -0.0009
    144  CD2       28.2310   25.5970   54.4590 C.ar  229  TYR229     -0.0009
    145  CE1       29.5470   26.4460   52.1930 C.ar  229  TYR229      0.0417
    146  CE2       28.9080   24.6600   53.6780 C.ar  229  TYR229      0.0417
    147  CZ        29.5680   25.0940   52.5320 C.ar  229  TYR229      0.1957
    148  OH        30.2630   24.2310   51.7160 O.3   229  TYR229     -0.2866
    149  N         24.2920   24.0720   55.2850 N.3   236  GLY236     -0.1225
    150  CA        23.6470   24.3280   54.0050 C.3   236  GLY236      0.1811
    151  C         22.1300   24.3440   54.0600 C.2   236  GLY236      0.2280
    152  O         21.4660   23.5880   54.7580 O.2   236  GLY236     -0.2866
    153  N         18.5820   24.2620   51.7230 N.3   238  ARG238     -0.1245
    154  CA        18.0280   23.8470   50.4350 C.3   238  ARG238      0.1563
    155  C         16.5400   23.7840   50.4370 C.2   238  ARG238      0.2260
    156  O         15.9250   23.5890   51.4880 O.2   238  ARG238     -0.2867
    157  CB        18.5470   22.4360   50.0700 C.3   238  ARG238      0.0307
    158  CG        20.0730   22.3040   50.0340 C.3   238  ARG238      0.0489
    159  CD        20.6760   23.0080   48.8230 C.3   238  ARG238      0.2205
    160  NE        22.1030   22.7830   48.6630 N.pl3 238  ARG238     -0.0865
    161  CZ        23.0640   23.5500   49.1580 C.cat 238  ARG238      0.5346
    162  NH1       22.8310   24.6300   49.8770 N.pl3 238  ARG238      0.1354
    163  NH2       24.3190   23.2160   48.9080 N.pl3 238  ARG238      0.1354
    164  N         13.7540   21.5870   49.8480 N.3   240  TYR240     -0.1241
    165  CA        13.3760   20.1700   49.6820 C.3   240  TYR240      0.1605
    166  C         11.9480   20.0510   49.2120 C.2   240  TYR240      0.2264
    167  O         11.0480   20.7110   49.7270 O.2   240  TYR240     -0.2867
    168  CB        13.6120   19.4130   51.0010 C.3   240  TYR240      0.0534
    169  CG        15.0890   19.3820   51.3220 C.ar  240  TYR240     -0.0201
    170  CD1       15.9550   18.4780   50.6940 C.ar  240  TYR240     -0.0009
    171  CD2       15.6420   20.2760   52.2420 C.ar  240  TYR240     -0.0009
    172  CE1       17.3230   18.4620   50.9640 C.ar  240  TYR240      0.0417
    173  CE2       17.0020   20.2630   52.5440 C.ar  240  TYR240      0.0417
    174  CZ        17.8510   19.3630   51.8940 C.ar  240  TYR240      0.1957
    175  OH        19.1830   19.3730   52.1520 O.3   240  TYR240     -0.2866
    176  N         20.6280   21.6320   56.9610 N.3   276  VAL276     -0.1245
    177  CA        20.9930   20.2480   57.2030 C.3   276  VAL276      0.1561
    178  C         20.4840   19.8200   58.5890 C.2   276  VAL276      0.2260
    179  O         19.7990   18.7960   58.7550 O.2   276  VAL276     -0.2867
    180  CB        22.4990   20.1270   57.0760 C.3   276  VAL276      0.0252
    181  CG1       22.9300   18.6860   57.4080 C.3   276  VAL276      0.0019
    182  CG2       22.9960   20.5260   55.6610 C.3   276  VAL276      0.0019
    183  N         32.1450   20.3790   51.4080 N.3   299  ARG299     -0.1231
    184  CA        32.2370   19.6060   50.1860 C.3   299  ARG299      0.1694
    185  C         32.5300   20.5360   49.0410 C.2   299  ARG299      0.2592
    186  O         31.9030   21.5820   48.9060 O.2   299  ARG299     -0.2718
    187  CB        30.8920   18.9530   49.9400 C.3   299  ARG299      0.0321
    188  CG        30.8740   18.1230   48.6610 C.3   299  ARG299      0.0489
    189  CD        29.6150   17.2580   48.6110 C.3   299  ARG299      0.2205
    190  NE        28.3850   18.0230   48.4320 N.pl3 299  ARG299     -0.0865
    191  CZ        27.1380   17.5430   48.5120 C.cat 299  ARG299      0.5346
    192  NH1       26.8630   16.2870   48.7840 N.pl3 299  ARG299      0.1354
    193  NH2       26.1360   18.3930   48.2880 N.pl3 299  ARG299      0.1354
    194  N         33.4820   20.1690   48.2130 N.am  300  GLU300     -0.1966
    195  CA        33.8420   21.0090   47.0820 C.3   300  GLU300      0.1733
    196  C         32.6550   21.4220   46.2150 C.2   300  GLU300      0.2617
    197  O         31.8150   20.5950   45.8450 O.2   300  GLU300     -0.2715
    198  CB        34.9490   20.3550   46.2260 C.3   300  GLU300      0.0429
    199  CG        34.7740   20.5610   44.7030 C.3   300  GLU300      0.1163
    200  CD        35.7960   19.8540   43.8380 C.2   300  GLU300      0.3649
    201  OE1       36.8660   20.3460   43.5180 O.co2 300  GLU300     -0.2457
    202  OE2       35.4220   18.6430   43.4920 O.co2 300  GLU300     -0.2457
    203  N         32.5730   22.7180   45.9190 N.am  301  GLY301     -0.1940
    204  CA        31.5310   23.3090   45.0760 C.3   301  GLY301      0.2014
    205  C         30.1490   23.5070   45.6780 C.2   301  GLY301      0.2639
    206  O         29.1940   23.8990   44.9800 O.2   301  GLY301     -0.2714
    207  N         30.0500   23.2550   46.9770 N.am  302  ASP302     -0.1957
    208  CA        28.8040   23.3770   47.6870 C.3   302  ASP302      0.1840
    209  C         28.3390   24.7900   47.8660 C.2   302  ASP302      0.2621
    210  O         29.1320   25.6280   48.2590 O.2   302  ASP302     -0.2715
    211  CB        28.9720   22.7670   49.0700 C.3   302  ASP302      0.1450
    212  CG        27.9570   21.7130   49.1920 C.2   302  ASP302      0.3671
    213  OD1       27.0560   21.6460   48.3880 O.co2 302  ASP302     -0.2456
    214  OD2       28.1380   20.8960   50.2020 O.co2 302  ASP302     -0.2456
    215  N         27.0640   25.0540   47.6400 N.am  303  VAL303     -0.1977
    216  CA        26.5980   26.4180   47.8610 C.3   303  VAL303      0.1596
    217  C         26.0400   26.5670   49.2520 C.2   303  VAL303      0.2287
    218  O         25.5880   25.6090   49.8580 O.2   303  VAL303     -0.2864
    219  CB        25.6240   26.9830   46.8150 C.3   303  VAL303      0.0276
    220  CG1       25.9840   26.5710   45.3890 C.3   303  VAL303      0.0022
    221  CG2       24.1870   26.6370   47.1250 C.3   303  VAL303      0.0022
@<TRIPOS>BOND
     1    43    42    2
     2    42    41    1
     3    40    41    1
     4    41    44    1
     5    35    34    2
     6    34    33    1
     7    47    49   ar
     8    47    45   ar
     9    49    50   ar
    10    19    20    1
    11    44    45    1
    12     1     2    1
    13    45    46   ar
    14    33    32    1
    15    33    36    1
    16    50    51    1
    17    50    48   ar
    18    22    21    2
    19     2     5    1
    20     2     3    1
    21    20    23    1
    22    20    21    1
    23    46    48   ar
    24    38    37    2
    25    23    24    1
    26    30    29    1
    27    36    37    1
    28    37    39   am
    29    28    27    2
    30     5     6    1
    31    27    26    1
    32     3     4    2
    33     3    10   am
    34     6     7    1
    35    10    11    1
    36    29    26    1
    37    29    31    1
    38    26    25    1
    39    11    14    1
    40    11    12    1
    41     7     8    1
    42     8     9    1
    43    12    13    2
    44    17    18    2
    45    17    16    1
    46    15    16    1
    47   202   200   ar
    48   201   200   ar
    49   200   199    1
    50   199   198    1
    51    73    72    2
    52   206   205    2
    53   204   205    1
    54   204   203    1
    55    52    53    1
    56   220   219    1
    57   205   207   am
    58   197   196    2
    59   203   196   am
    60    72    71    1
    61    72    74   am
    62    53    54    1
    63    53    56    1
    64   196   195    1
    65   198   195    1
    66    54    55    2
    67    58    57    2
    68    71    68    1
    69   219   221    1
    70   219   216    1
    71    57    56    1
    72    57    59   am
    73   207   208    1
    74   195   194    1
    75    82    80   am
    76   215   216    1
    77   215   209   am
    78    80    81    2
    79    80    79    1
    80   208   209    1
    81   208   211    1
    82   216   217    1
    83   209   210    2
    84    79    76    1
    85    68    67    1
    86    68    69    1
    87    67    62   am
    88   194   185   am
    89   193   191    1
    90   213   212   ar
    91   190   191    2
    92   190   189    1
    93    75    69   am
    94    75    76    1
    95    69    70    2
    96   191   192    1
    97   189   188    1
    98   188   187    1
    99   160   159    1
   100   160   161    2
   101   159   158    1
   102    76    77    1
   103   186   185    2
   104   163   161    1
   105   185   184    1
   106   211   212    1
   107   161   162    1
   108   212   214   ar
   109   166   165    1
   110   166   167    2
   111   217   218    2
   112    61    62    1
   113    61    60    1
   114    61    64    1
   115    62    63    2
   116   165   164    1
   117   165   168    1
   118    60    66    2
   119   187   184    1
   120   158   157    1
   121    64    65    2
   122   157   154    1
   123   184   183    1
   124    77    83   am
   125    77    78    2
   126   154   155    1
   127   154   153    1
   128   155   156    2
   129   170   172   ar
   130   170   169   ar
   131    83    84    1
   132   172   174   ar
   133   168   169    1
   134    66    65    1
   135   169   171   ar
   136   134   132   ar
   137   134   136   ar
   138   148   147    1
   139   174   175    1
   140   174   173   ar
   141   132   131   ar
   142   145   147   ar
   143   145   143   ar
   144    84    87    1
   145    84    85    1
   146   171   173   ar
   147   136   135   ar
   148   147   146   ar
   149    87    88    1
   150    85    86    2
   151   143   142   ar
   152    91    92    1
   153   131   130    1
   154   131   133   ar
   155   135   133   ar
   156   130   127    1
   157   146   144   ar
   158    98   100   ar
   159    98    96   ar
   160   150   151    1
   161   150   149    1
   162    88    90    1
   163    88    89    1
   164    95    92    1
   165    95    96    1
   166   151   152    2
   167   142   144   ar
   168   142   141    1
   169    92    93    1
   170   100   101   ar
   171   129   128    2
   172    96    97   ar
   173   141   138    1
   174   127   128    1
   175   127   126    1
   176    93    94    2
   177   182   180    1
   178   101   102    1
   179   101    99   ar
   180   138   139    1
   181   138   137    1
   182   126   121   am
   183    97    99   ar
   184   139   140    2
   185   114   113    2
   186   109   108    1
   187   176   177    1
   188   180   177    1
   189   180   181    1
   190   117   116    2
   191   115   116    1
   192   115   112    1
   193   177   178    1
   194   121   122    2
   195   121   120    1
   196   113   112    1
   197   113   119   am
   198   116   118   am
   199   120   119    1
   200   120   123    1
   201   112   111    1
   202   111   105   am
   203   108   110    1
   204   108   107    1
   205   178   179    2
   206   124   123    1
   207   123   125    1
   208   107   104    1
   209   104   105    1
   210   104   103    1
   211   105   106    2
