@<TRIPOS>MOLECULE
tmp/1i3sA00.pdb
 122 118 0 0 0
SMALL
GASTEIGER

@<TRIPOS>ATOM
      1  N         40.6020   27.0340  106.8220 N.3    19  TYR19      -0.1241
      2  CA        39.1980   27.0520  106.3690 C.3    19  TYR19       0.1605
      3  C         39.0780   26.5050  105.0010 C.2    19  TYR19       0.2264
      4  O         39.6440   27.0760  104.0510 O.2    19  TYR19      -0.2867
      5  CB        38.7300   28.5090  106.3790 C.3    19  TYR19       0.0534
      6  CG        37.2370   28.7480  106.2490 C.ar   19  TYR19      -0.0201
      7  CD1       36.4050   28.7810  107.3740 C.ar   19  TYR19      -0.0009
      8  CD2       36.6560   28.9980  105.0030 C.ar   19  TYR19      -0.0009
      9  CE1       35.0250   29.0650  107.2550 C.ar   19  TYR19       0.0417
     10  CE2       35.2900   29.2820  104.8790 C.ar   19  TYR19       0.0417
     11  CZ        34.4870   29.3150  106.0010 C.ar   19  TYR19       0.1957
     12  OH        33.1610   29.6240  105.8560 O.3    19  TYR19      -0.2866
     13  N         36.3780   25.6120  102.1660 N.3    21  ASN21      -0.1240
     14  CA        34.9610   25.8540  101.8040 C.3    21  ASN21       0.1653
     15  C         34.5510   25.0910  100.5990 C.2    21  ASN21       0.2266
     16  O         35.4220   24.6110   99.8440 O.2    21  ASN21      -0.2867
     17  CB        34.8060   27.3690  101.5510 C.3    21  ASN21       0.1155
     18  CG        33.4230   27.8820  101.8370 C.2    21  ASN21       0.2627
     19  OD1       32.9310   27.8150  102.9880 O.2    21  ASN21      -0.2716
     20  ND2       32.7750   28.4150  100.8080 N.am   21  ASN21      -0.0877
     21  N         32.7880   26.3000   97.9150 N.3    23  ILE23      -0.1245
     22  CA        33.1080   27.2360   96.7960 C.3    23  ILE23       0.1561
     23  C         34.5160   27.0040   96.3560 C.2    23  ILE23       0.2260
     24  O         34.7600   26.5060   95.2460 O.2    23  ILE23      -0.2867
     25  CB        33.0120   28.7400   97.2360 C.3    23  ILE23       0.0252
     26  CG1       31.6780   29.0240   97.9450 C.3    23  ILE23       0.0019
     27  CG2       33.1370   29.6460   96.0120 C.3    23  ILE23       0.0019
     28  CD1       31.5140   30.4820   98.4490 C.3    23  ILE23       0.0001
     29  N         32.8640   36.0970   97.1230 N.3    33  LEU33      -0.1231
     30  CA        33.0670   36.6810   98.4720 C.3    33  LEU33       0.1693
     31  C         32.7780   35.6950   99.5780 C.2    33  LEU33       0.2592
     32  O         31.8000   34.9210   99.5230 O.2    33  LEU33      -0.2718
     33  CB        32.1470   37.8840   98.6590 C.3    33  LEU33       0.0284
     34  CG        32.6200   39.1570   99.3680 C.3    33  LEU33       0.0019
     35  CD1       31.4300   39.7430  100.0890 C.3    33  LEU33       0.0001
     36  CD2       33.7460   38.9100  100.3420 C.3    33  LEU33       0.0001
     37  N         33.6230   35.7130  100.6000 N.am   34  MET34      -0.1965
     38  CA        33.4650   34.8570  101.7960 C.3    34  MET34       0.1736
     39  C         33.7680   35.7520  102.9420 C.2    34  MET34       0.2616
     40  O         34.7840   36.4620  102.9280 O.2    34  MET34      -0.2715
     41  CB        34.4820   33.7210  101.8360 C.3    34  MET34       0.0427
     42  CG        34.3610   32.6630  100.7910 C.3    34  MET34       0.0599
     43  SD        35.4880   31.3490  101.2900 S.3    34  MET34      -0.1393
     44  CE        37.0610   32.1790  101.2380 C.3    34  MET34       0.0692
     45  N         32.9350   35.7370  103.9690 N.am   35  MET35      -0.1963
     46  CA        33.1890   36.6070  105.1220 C.3    35  MET35       0.1736
     47  C         32.8570   35.8370  106.3160 C.2    35  MET35       0.2616
     48  O         31.8730   35.1040  106.3190 O.2    35  MET35      -0.2715
     49  CB        32.3130   37.8750  105.0530 C.3    35  MET35       0.0427
     50  CG        32.5980   38.7950  103.8640 C.3    35  MET35       0.0599
     51  SD        31.3160   40.0480  103.6780 S.3    35  MET35      -0.1393
     52  CE        31.3610   40.7910  105.2970 C.3    35  MET35       0.0692
     53  N         33.6550   35.9730  107.3660 N.am   36  PHE36      -0.1974
     54  CA        33.3710   35.2400  108.6110 C.3    36  PHE36       0.1639
     55  C         34.0350   35.9400  109.7330 C.2    36  PHE36       0.2290
     56  O         34.9200   36.7640  109.5080 O.2    36  PHE36      -0.2864
     57  CB        33.8700   33.7990  108.4930 C.3    36  PHE36       0.0560
     58  CG        35.3360   33.6960  108.2440 C.ar   36  PHE36      -0.0200
     59  CD1       36.2530   33.9430  109.2760 C.ar   36  PHE36      -0.0042
     60  CD2       35.8100   33.3810  106.9770 C.ar   36  PHE36      -0.0042
     61  CE1       37.6160   33.8770  109.0350 C.ar   36  PHE36      -0.0003
     62  CE2       37.1720   33.3150  106.7280 C.ar   36  PHE36      -0.0003
     63  CZ        38.0750   33.5620  107.7500 C.ar   36  PHE36      -0.0000
     64  N         24.9990   41.2650  100.0710 N.3   118  TYR118     -0.1241
     65  CA        25.8260   40.9370  101.2700 C.3   118  TYR118      0.1605
     66  C         25.5820   41.9050  102.3780 C.2   118  TYR118      0.2264
     67  O         25.4480   41.4960  103.5560 O.2   118  TYR118     -0.2867
     68  CB        27.3300   40.9000  100.9240 C.3   118  TYR118      0.0534
     69  CG        27.7340   39.6440  100.1860 C.ar  118  TYR118     -0.0201
     70  CD1       27.7780   39.6110   98.7980 C.ar  118  TYR118     -0.0009
     71  CD2       28.0030   38.4680  100.8820 C.ar  118  TYR118     -0.0009
     72  CE1       28.0800   38.4390   98.1210 C.ar  118  TYR118      0.0417
     73  CE2       28.2990   37.2970  100.2250 C.ar  118  TYR118      0.0417
     74  CZ        28.3410   37.2850   98.8430 C.ar  118  TYR118      0.1957
     75  OH        28.6790   36.1200   98.1900 O.3   118  TYR118     -0.2866
     76  N         24.1560   39.4330  104.8590 N.3   122  CYS122     -0.1235
     77  CA        25.3830   38.8880  105.5140 C.3   122  CYS122      0.1677
     78  C         25.9480   39.6860  106.6350 C.2   122  CYS122      0.2270
     79  O         26.1350   39.1930  107.7740 O.2   122  CYS122     -0.2867
     80  CB        26.4830   38.7160  104.4650 C.3   122  CYS122      0.0956
     81  SG        26.8180   37.0400  103.9610 S.3   122  CYS122     -0.0801
     82  N         24.9870   39.6150  110.3250 N.3   125  LYS125     -0.1231
     83  CA        25.4400   38.4450  111.0990 C.3   125  LYS125      0.1693
     84  C         26.8430   38.5890  111.5640 C.2   125  LYS125      0.2591
     85  O         27.2590   37.9590  112.5790 O.2   125  LYS125     -0.2718
     86  CB        25.3090   37.1840  110.2460 C.3   125  LYS125      0.0285
     87  CG        23.9200   36.5820  110.2660 C.3   125  LYS125      0.0035
     88  CD        23.5650   36.1780  111.6930 C.3   125  LYS125      0.0206
     89  CE        22.1420   35.6780  111.7910 C.3   125  LYS125      0.1093
     90  NZ        21.7820   35.4190  113.2170 N.3   125  LYS125     -0.1314
     91  N         27.6060   39.4230  110.8670 N.am  126  LEU126     -0.1980
     92  CA        29.0250   39.6120  111.2040 C.3   126  LEU126      0.1596
     93  C         29.3420   40.8300  111.9690 C.2   126  LEU126      0.2287
     94  O         30.5230   41.0460  112.3210 O.2   126  LEU126     -0.2864
     95  CB        29.8590   39.5760  109.9300 C.3   126  LEU126      0.0297
     96  CG        29.5530   38.3590  109.0590 C.3   126  LEU126      0.0022
     97  CD1       30.1560   38.5620  107.7050 C.3   126  LEU126      0.0001
     98  CD2       30.0640   37.0900  109.7230 C.3   126  LEU126      0.0001
     99  N         28.2270   31.0930  111.4170 N.3   168  ALA168     -0.1231
    100  CA        27.1790   32.0150  110.9140 C.3   168  ALA168      0.1694
    101  C         26.8870   31.9280  109.4240 C.2   168  ALA168      0.2592
    102  O         27.7420   32.2230  108.5700 O.2   168  ALA168     -0.2718
    103  CB        27.5340   33.4540  111.3030 C.3   168  ALA168      0.0304
    104  N         25.6780   31.5070  109.0870 N.am  169  HIS169     -0.1962
    105  CA        25.2570   31.4310  107.6740 C.3   169  HIS169      0.1787
    106  C         24.7550   32.7770  107.1960 C.2   169  HIS169      0.2620
    107  O         24.6770   33.7740  107.9690 O.2   169  HIS169     -0.2715
    108  CB        24.1190   30.4220  107.5150 C.3   169  HIS169      0.0785
    109  CG        24.5680   29.0160  107.2550 C.ar  169  HIS169      0.0821
    110  ND1       23.7010   28.0280  106.8340 N.ar  169  HIS169     -0.2267
    111  CD2       25.7900   28.4350  107.3360 C.ar  169  HIS169      0.1154
    112  CE1       24.3690   26.9020  106.6660 C.ar  169  HIS169      0.1986
    113  NE2       25.6380   27.1210  106.9620 N.ar  169  HIS169     -0.2212
    114  N         24.3990   32.8310  105.9190 N.am  170  GLU170     -0.1977
    115  CA        23.8470   34.0490  105.3110 C.3   170  GLU170      0.1602
    116  C         22.3870   34.0720  105.7110 C.2   170  GLU170      0.2287
    117  O         21.6900   33.0150  105.6820 O.2   170  GLU170     -0.2864
    118  CB        23.9840   33.9730  103.7810 C.3   170  GLU170      0.0415
    119  CG        23.4660   35.1760  103.0540 C.3   170  GLU170      0.1163
    120  CD        23.6890   35.1980  101.5730 C.2   170  GLU170      0.3649
    121  OE1       24.1830   34.2370  101.0220 O.co2 170  GLU170     -0.2457
    122  OE2       23.2420   36.1030  100.8510 O.co2 170  GLU170     -0.2457
@<TRIPOS>BOND
     1    24    23    2
     2    27    25    1
     3    23    22    1
     4    22    25    1
     5    22    21    1
     6    29    30    1
     7    25    26    1
     8    26    28    1
     9    72    70   ar
    10    72    74   ar
    11    75    74    1
    12    30    33    1
    13    30    31    1
    14    33    34    1
    15    70    69   ar
    16    74    73   ar
    17    34    35    1
    18    34    36    1
    19    32    31    2
    20    31    37   am
    21    16    15    2
    22    64    65    1
    23    69    71   ar
    24    69    68    1
    25    73    71   ar
    26    15    14    1
    27    37    38    1
    28    42    43    1
    29    42    41    1
    30    20    18   am
    31   122   120   ar
    32    68    65    1
    33   121   120   ar
    34    44    43    1
    35    65    66    1
    36    17    14    1
    37    17    18    1
    38   120   119    1
    39    38    41    1
    40    38    39    1
    41    14    13    1
    42    18    19    2
    43    66    67    2
    44    40    39    2
    45    39    45   am
    46   119   118    1
    47    51    50    1
    48    51    52    1
    49   118   115    1
    50    50    49    1
    51    81    80    1
    52    45    46    1
    53     4     3    2
    54    80    77    1
    55    76    77    1
    56    10     8   ar
    57    10    11   ar
    58     3     2    1
    59     8     6   ar
    60    49    46    1
    61    46    47    1
    62   115   116    1
    63   115   114    1
    64    77    78    1
    65   117   116    2
    66    12    11    1
    67   114   106   am
    68    11     9   ar
    69     6     5    1
    70     6     7   ar
    71    47    48    2
    72    47    53   am
    73     2     5    1
    74     2     1    1
    75    78    79    2
    76   112   110   ar
    77   112   113   ar
    78    62    60   ar
    79    62    63   ar
    80   110   109   ar
    81   113   111   ar
    82    60    58   ar
    83   106   105    1
    84   106   107    2
    85     9     7   ar
    86   109   111   ar
    87   109   108    1
    88    53    54    1
    89   108   105    1
    90   105   104    1
    91    97    96    1
    92    63    61   ar
    93    58    57    1
    94    58    59   ar
    95    57    54    1
    96   102   101    2
    97    54    55    1
    98    61    59   ar
    99    96    98    1
   100    96    95    1
   101   104   101   am
   102   101   100    1
   103    56    55    2
   104    95    92    1
   105    86    87    1
   106    86    83    1
   107    87    88    1
   108    82    83    1
   109    91    92    1
   110    91    84   am
   111   100   103    1
   112   100    99    1
   113    83    84    1
   114    92    93    1
   115    84    85    2
   116    88    89    1
   117    89    90    1
   118    93    94    2
