@<TRIPOS>MOLECULE
tmp/1i3uA00.pdb
 135 132 0 0 0
SMALL
GASTEIGER

@<TRIPOS>ATOM
      1  N         31.9950   16.8520   43.7150 N.3    32  VAL32      -0.1245
      2  CA        31.0890   16.2980   44.7000 C.3    32  VAL32       0.1561
      3  C         30.0110   15.7650   43.7470 C.2    32  VAL32       0.2260
      4  O         29.6590   16.4480   42.7850 O.2    32  VAL32      -0.2867
      5  CB        30.4910   17.4180   45.5970 C.3    32  VAL32       0.0252
      6  CG1       29.4040   16.8590   46.4900 C.3    32  VAL32       0.0019
      7  CG2       31.6000   18.0530   46.4510 C.3    32  VAL32       0.0019
      8  N         24.2880   12.6450   48.4230 N.3    49  THR49      -0.1218
      9  CA        25.5280   13.3280   48.0880 C.3    49  THR49       0.1862
     10  C         26.7080   12.4710   48.4910 C.2    49  THR49       0.2287
     11  O         26.6780   11.8400   49.5430 O.2    49  THR49      -0.2866
     12  CB        25.6980   14.6500   48.8720 C.3    49  THR49       0.1770
     13  OG1       24.6900   15.5870   48.4830 O.3    49  THR49      -0.2211
     14  CG2       27.0940   15.2470   48.6100 C.3    49  THR49       0.0375
     15  N         30.8000   13.0770   48.8170 N.3    51  GLY51      -0.1210
     16  CA        31.8700   14.0500   48.7020 C.3    51  GLY51       0.1956
     17  C         33.1460   13.5630   48.0500 C.2    51  GLY51       0.2612
     18  O         33.3490   12.3600   47.8580 O.2    51  GLY51      -0.2717
     19  N         34.0070   14.5260   47.7290 N.am   52  ARG52      -0.1965
     20  CA        35.3000   14.2890   47.0930 C.3    52  ARG52       0.1729
     21  C         36.2880   13.6970   48.0890 C.2    52  ARG52       0.2616
     22  O         37.1380   12.8730   47.7360 O.2    52  ARG52      -0.2715
     23  CB        35.8930   15.6180   46.5950 C.3    52  ARG52       0.0348
     24  CG        35.0340   16.4270   45.6190 C.3    52  ARG52       0.0492
     25  CD        35.4970   17.8950   45.5800 C.3    52  ARG52       0.2205
     26  NE        35.4400   18.4810   46.9190 N.pl3  52  ARG52      -0.0865
     27  CZ        36.0630   19.5940   47.2990 C.cat  52  ARG52       0.5346
     28  NH1       36.8100   20.2820   46.4490 N.pl3  52  ARG52       0.1354
     29  NH2       35.9490   20.0060   48.5510 N.pl3  52  ARG52       0.1354
     30  N         36.1710   14.1360   49.3360 N.am   53  ASN53      -0.1958
     31  CA        37.0870   13.7220   50.3730 C.3    53  ASN53       0.1819
     32  C         36.5300   12.8420   51.5030 C.2    53  ASN53       0.2621
     33  O         35.3310   12.5520   51.5750 O.2    53  ASN53      -0.2715
     34  CB        37.7780   14.9810   50.9160 C.3    53  ASN53       0.1195
     35  CG        38.4840   15.7660   49.8130 C.2    53  ASN53       0.2630
     36  OD1       39.3540   15.2270   49.1230 O.2    53  ASN53      -0.2716
     37  ND2       38.1020   17.0340   49.6290 N.am   53  ASN53      -0.0877
     38  N         37.4300   12.4190   52.3800 N.am   54  LEU54      -0.1963
     39  CA        37.1070   11.5160   53.4820 C.3    54  LEU54       0.1728
     40  C         36.6030   12.1280   54.7790 C.2    54  LEU54       0.2616
     41  O         36.7910   13.3130   55.0340 O.2    54  LEU54      -0.2715
     42  CB        38.3410   10.6680   53.8040 C.3    54  LEU54       0.0311
     43  CG        38.7260    9.4690   52.9250 C.3    54  LEU54       0.0022
     44  CD1       38.2530    9.6480   51.5080 C.3    54  LEU54       0.0001
     45  CD2       40.2280    9.2710   52.9960 C.3    54  LEU54       0.0001
     46  N         35.9620   11.2850   55.5890 N.am   55  VAL55      -0.1977
     47  CA        35.4520   11.6580   56.9060 C.3    55  VAL55       0.1596
     48  C         36.0700   10.6670   57.8920 C.2    55  VAL55       0.2287
     49  O         35.8310   10.7230   59.0920 O.2    55  VAL55      -0.2864
     50  CB        33.9040   11.5560   56.9910 C.3    55  VAL55       0.0276
     51  CG1       33.2670   12.5870   56.0820 C.3    55  VAL55       0.0022
     52  CG2       33.4430   10.1500   56.6160 C.3    55  VAL55       0.0022
     53  N         32.6960   11.4670   52.4360 N.3    61  TYR61      -0.1241
     54  CA        31.5830   12.1620   53.0480 C.3    61  TYR61       0.1605
     55  C         30.3470   11.6820   52.2860 C.2    61  TYR61       0.2264
     56  O         30.4000   11.5190   51.0710 O.2    61  TYR61      -0.2867
     57  CB        31.7330   13.6720   52.8460 C.3    61  TYR61       0.0534
     58  CG        30.4680   14.4330   53.1440 C.ar   61  TYR61      -0.0201
     59  CD1       30.1690   14.8400   54.4400 C.ar   61  TYR61      -0.0009
     60  CD2       29.5240   14.6630   52.1430 C.ar   61  TYR61      -0.0009
     61  CE1       28.9530   15.4530   54.7370 C.ar   61  TYR61       0.0417
     62  CE2       28.3090   15.2690   52.4250 C.ar   61  TYR61       0.0417
     63  CZ        28.0280   15.6620   53.7230 C.ar   61  TYR61       0.1957
     64  OH        26.8360   16.2880   54.0010 O.3    61  TYR61      -0.2866
     65  N         25.7280   11.8200   52.3570 N.3    63  ARG63      -0.1245
     66  CA        24.5240   12.3730   52.9500 C.3    63  ARG63       0.1563
     67  C         23.3500   11.8390   52.1400 C.2    63  ARG63       0.2260
     68  O         23.4670   11.6310   50.9310 O.2    63  ARG63      -0.2867
     69  CB        24.5580   13.9020   52.9080 C.3    63  ARG63       0.0307
     70  CG        23.4380   14.5690   53.7090 C.3    63  ARG63       0.0489
     71  CD        23.6970   16.0590   53.9020 C.3    63  ARG63       0.2205
     72  NE        23.7030   16.8120   52.6470 N.pl3  63  ARG63      -0.0865
     73  CZ        22.6160   17.2800   52.0360 C.cat  63  ARG63       0.5346
     74  NH1       21.4150   17.0750   52.5590 N.pl3  63  ARG63       0.1354
     75  NH2       22.7340   17.9740   50.9060 N.pl3  63  ARG63       0.1354
     76  N         29.4100   19.2880   41.2190 N.3   103  LYS103     -0.1245
     77  CA        29.8040   20.6320   41.6270 C.3   103  LYS103      0.1561
     78  C         31.0590   20.4050   42.4630 C.2   103  LYS103      0.2260
     79  O         31.4460   19.2530   42.7020 O.2   103  LYS103     -0.2867
     80  CB        28.7020   21.3200   42.4590 C.3   103  LYS103      0.0271
     81  CG        28.3330   20.6410   43.7740 C.3   103  LYS103      0.0035
     82  CD        27.1030   21.3120   44.4000 C.3   103  LYS103      0.0206
     83  CE        26.6900   20.6620   45.7230 C.3   103  LYS103      0.1093
     84  NZ        27.6600   20.9280   46.8340 N.3   103  LYS103     -0.1314
     85  N         31.0080   22.6280   48.9060 N.3   106  THR106     -0.1203
     86  CA        30.6620   21.7940   50.0570 C.3   106  THR106      0.1994
     87  C         29.3440   22.1980   50.7180 C.2   106  THR106      0.2618
     88  O         29.1310   21.9230   51.9020 O.2   106  THR106     -0.2717
     89  CB        31.7650   21.8550   51.1420 C.3   106  THR106      0.1784
     90  OG1       31.9570   23.2160   51.5570 O.3   106  THR106     -0.2211
     91  CG2       33.0820   21.2970   50.5990 C.3   106  THR106      0.0376
     92  N         28.4570   22.8350   49.9600 N.am  107  TRP107     -0.1961
     93  CA        27.1720   23.2700   50.5110 C.3   107  TRP107      0.1771
     94  C         26.0890   23.2870   49.4340 C.2   107  TRP107      0.2620
     95  O         26.3840   23.1860   48.2440 O.2   107  TRP107     -0.2715
     96  CB        27.3040   24.6890   51.0650 C.3   107  TRP107      0.0590
     97  CG        27.7160   25.6430   49.9830 C.ar  107  TRP107      0.0006
     98  CD1       28.9870   25.8720   49.5420 C.ar  107  TRP107      0.0946
     99  CD2       26.8490   26.3720   49.1000 C.ar  107  TRP107      0.0152
    100  NE1       28.9670   26.6870   48.4360 N.ar  107  TRP107     -0.2442
    101  CE2       27.6690   27.0080   48.1410 C.ar  107  TRP107      0.0810
    102  CE3       25.4560   26.5430   49.0220 C.ar  107  TRP107      0.0012
    103  CZ2       27.1470   27.8030   47.1120 C.ar  107  TRP107      0.0191
    104  CZ3       24.9340   27.3350   47.9970 C.ar  107  TRP107      0.0001
    105  CH2       25.7810   27.9540   47.0570 C.ar  107  TRP107      0.0015
    106  N         24.8390   23.4260   49.8810 N.am  108  GLY108     -0.1940
    107  CA        23.6940   23.5250   48.9870 C.3   108  GLY108      0.2014
    108  C         23.2670   22.3420   48.1430 C.2   108  GLY108      0.2639
    109  O         22.5490   22.5230   47.1650 O.2   108  GLY108     -0.2714
    110  N         23.6730   21.1380   48.5230 N.am  109  GLY109     -0.1939
    111  CA        23.3180   19.9640   47.7460 C.3   109  GLY109      0.2014
    112  C         21.8370   19.7410   47.4840 C.2   109  GLY109      0.2638
    113  O         21.4630   19.2510   46.4180 O.2   109  GLY109     -0.2714
    114  N         20.9830   20.0990   48.4380 N.am  110  ASN110     -0.1972
    115  CA        19.5460   19.8870   48.2700 C.3   110  ASN110      0.1688
    116  C         18.9110   20.6150   47.0960 C.2   110  ASN110      0.2292
    117  O         18.0260   20.0720   46.4390 O.2   110  ASN110     -0.2864
    118  CB        18.7960   20.2400   49.5600 C.3   110  ASN110      0.1181
    119  CG        18.8290   19.1130   50.5740 C.2   110  ASN110      0.2629
    120  OD1       19.8960   18.6750   50.9960 O.2   110  ASN110     -0.2716
    121  ND2       17.6480   18.6330   50.9700 N.am  110  ASN110     -0.0877
    122  N         23.8620   22.8020   41.5400 N.3   115  TRP115     -0.1241
    123  CA        24.7510   21.8880   40.8350 C.3   115  TRP115      0.1605
    124  C         25.1030   22.4030   39.4450 C.2   115  TRP115      0.2264
    125  O         24.2570   22.9260   38.7160 O.2   115  TRP115     -0.2867
    126  CB        24.1410   20.4870   40.7780 C.3   115  TRP115      0.0550
    127  CG        23.9230   19.9240   42.1500 C.ar  115  TRP115      0.0003
    128  CD1       22.9330   20.2610   43.0260 C.ar  115  TRP115      0.0946
    129  CD2       24.7480   18.9690   42.8260 C.ar  115  TRP115      0.0152
    130  NE1       23.0890   19.5770   44.2070 N.ar  115  TRP115     -0.2442
    131  CE2       24.1960   18.7750   44.1110 C.ar  115  TRP115      0.0810
    132  CE3       25.9030   18.2570   42.4700 C.ar  115  TRP115      0.0012
    133  CZ2       24.7570   17.8950   45.0430 C.ar  115  TRP115      0.0191
    134  CZ3       26.4610   17.3810   43.4000 C.ar  115  TRP115      0.0001
    135  CH2       25.8850   17.2090   44.6700 C.ar  115  TRP115      0.0015
@<TRIPOS>BOND
     1   125   124    2
     2   124   123    1
     3   126   123    1
     4   126   127    1
     5   123   122    1
     6    76    77    1
     7    77    80    1
     8    77    78    1
     9   127   129   ar
    10   127   128   ar
    11    80    81    1
    12    78    79    2
    13   132   129   ar
    14   132   134   ar
    15     4     3    2
    16   129   131   ar
    17   128   130   ar
    18   134   135   ar
    19     1     2    1
    20     3     2    1
    21    81    82    1
    22   131   130   ar
    23   131   133   ar
    24    82    83    1
    25   135   133   ar
    26     2     5    1
    27    25    24    1
    28    25    26    1
    29     5     7    1
    30     5     6    1
    31    24    23    1
    32    83    84    1
    33   113   112    2
    34   117   116    2
    35    28    27    1
    36    23    20    1
    37    26    27    2
    38   105   103   ar
    39   105   104   ar
    40    20    19    1
    41    20    21    1
    42   116   115    1
    43   103   101   ar
    44   109   108    2
    45    27    29    1
    46   112   111    1
    47   112   114   am
    48    19    17   am
    49    22    21    2
    50   111   110    1
    51    18    17    2
    52   104   102   ar
    53    17    16    1
    54     9     8    1
    55     9    10    1
    56     9    12    1
    57    21    30   am
    58   101   100   ar
    59   101    99   ar
    60   108   110   am
    61   108   107    1
    62    95    94    2
    63   115   114    1
    64   115   118    1
    65   100    98   ar
    66    13    12    1
    67    10    11    2
    68    14    12    1
    69    16    15    1
    70    85    86    1
    71   107   106    1
    72   102    99   ar
    73    99    97   ar
    74    36    35    2
    75    30    31    1
    76    94   106   am
    77    94    93    1
    78    98    97   ar
    79   118   119    1
    80    37    35   am
    81    35    34    1
    82    92    93    1
    83    92    87   am
    84    97    96    1
    85    86    87    1
    86    86    89    1
    87    31    34    1
    88    31    32    1
    89    93    96    1
    90   119   121   am
    91   119   120    2
    92    91    89    1
    93    87    88    2
    94    75    73    1
    95    68    67    2
    96    56    55    2
    97    89    90    1
    98    32    33    2
    99    32    38   am
   100    44    43    1
   101    73    74    1
   102    73    72    2
   103    67    66    1
   104    60    62   ar
   105    60    58   ar
   106    55    54    1
   107    65    66    1
   108    38    39    1
   109    62    63   ar
   110    53    54    1
   111    72    71    1
   112    57    54    1
   113    57    58    1
   114    69    66    1
   115    69    70    1
   116    43    45    1
   117    43    42    1
   118    58    59   ar
   119    39    42    1
   120    39    40    1
   121    70    71    1
   122    63    64    1
   123    63    61   ar
   124    59    61   ar
   125    40    41    2
   126    40    46   am
   127    46    47    1
   128    51    50    1
   129    52    50    1
   130    47    50    1
   131    47    48    1
   132    48    49    2
