@<TRIPOS>MOLECULE
tmp/1i41L00.pdb
 201 190 0 0 0
SMALL
GASTEIGER

@<TRIPOS>ATOM
      1  N         22.4290  168.3700   47.9380 N.3    88  SER88      -0.1202
      2  CA        22.3870  167.4420   49.0600 C.3    88  SER88       0.2020
      3  C         23.5670  167.6680   49.9850 C.2    88  SER88       0.2619
      4  O         24.6040  168.1820   49.5610 O.2    88  SER88      -0.2717
      5  CB        22.4060  165.9950   48.5470 C.3    88  SER88       0.2103
      6  OG        23.7280  165.5090   48.3760 O.3    88  SER88      -0.2182
      7  N         23.4040  167.2820   51.2460 N.am   89  GLY89      -0.1942
      8  CA        24.4710  167.4530   52.2160 C.3    89  GLY89       0.2014
      9  C         25.8090  166.9830   51.6790 C.2    89  GLY89       0.2638
     10  O         26.7840  167.7370   51.6650 O.2    89  GLY89      -0.2714
     11  N         25.8500  165.7310   51.2320 N.am   90  MET90      -0.1976
     12  CA        27.0630  165.1430   50.6780 C.3    90  MET90       0.1605
     13  C         27.6930  166.1040   49.6810 C.2    90  MET90       0.2287
     14  O         28.8980  166.3510   49.7220 O.2    90  MET90      -0.2864
     15  CB        26.7390  163.8190   49.9790 C.3    90  MET90       0.0413
     16  CG        26.8020  162.6010   50.8890 C.3    90  MET90       0.0598
     17  SD        28.1850  162.6520   52.0560 S.3    90  MET90      -0.1393
     18  CE        29.5770  163.0600   50.9470 C.3    90  MET90       0.0692
     19  N         29.6910  169.0670   51.6200 N.3    93  SER93      -0.1217
     20  CA        30.9940  168.6360   52.1230 C.3    93  SER93       0.1889
     21  C         31.9230  168.3780   50.9400 C.2    93  SER93       0.2288
     22  O         33.0080  168.9590   50.8410 O.2    93  SER93      -0.2866
     23  CB        30.8550  167.3610   52.9600 C.3    93  SER93       0.2089
     24  OG        29.5080  166.9320   53.0250 O.3    93  SER93      -0.2183
     25  N         30.6000  160.4120   59.2880 N.3   114  TYR114     -0.1227
     26  CA        29.4320  159.7380   58.7400 C.3   114  TYR114      0.1736
     27  C         29.9630  158.8510   57.6180 C.2   114  TYR114      0.2595
     28  O         30.7820  159.2890   56.8130 O.2   114  TYR114     -0.2718
     29  CB        28.4200  160.7620   58.2040 C.3   114  TYR114      0.0548
     30  CG        27.5720  160.2650   57.0490 C.ar  114  TYR114     -0.0200
     31  CD1       26.7760  159.1260   57.1760 C.ar  114  TYR114     -0.0009
     32  CD2       27.5990  160.9110   55.8130 C.ar  114  TYR114     -0.0009
     33  CE1       26.0320  158.6380   56.0960 C.ar  114  TYR114      0.0417
     34  CE2       26.8600  160.4320   54.7290 C.ar  114  TYR114      0.0417
     35  CZ        26.0810  159.2950   54.8740 C.ar  114  TYR114      0.1957
     36  OH        25.3720  158.8100   53.7930 O.3   114  TYR114     -0.2866
     37  N         29.5030  157.6040   57.5830 N.am  115  ARG115     -0.1966
     38  CA        29.9390  156.6290   56.5820 C.3   115  ARG115      0.1729
     39  C         30.4880  157.2150   55.2880 C.2   115  ARG115      0.2616
     40  O         31.7000  157.2870   55.1010 O.2   115  ARG115     -0.2715
     41  CB        28.7960  155.6650   56.2450 C.3   115  ARG115      0.0348
     42  CG        29.2380  154.4100   55.4940 C.3   115  ARG115      0.0492
     43  CD        30.1540  153.5430   56.3510 C.3   115  ARG115      0.2205
     44  NE        31.0310  152.6930   55.5480 N.pl3 115  ARG115     -0.0865
     45  CZ        30.7010  151.4820   55.1050 C.cat 115  ARG115      0.5346
     46  NH1       29.5100  150.9700   55.3850 N.pl3 115  ARG115      0.1354
     47  NH2       31.5640  150.7830   54.3780 N.pl3 115  ARG115      0.1354
     48  N         29.5930  157.6280   54.3960 N.am  116  LYS116     -0.1963
     49  CA        29.9890  158.1840   53.1040 C.3   116  LYS116      0.1728
     50  C         31.0420  159.2870   53.1760 C.2   116  LYS116      0.2616
     51  O         32.0340  159.2450   52.4470 O.2   116  LYS116     -0.2715
     52  CB        28.7570  158.6940   52.3530 C.3   116  LYS116      0.0311
     53  CG        28.3160  157.7890   51.2050 C.3   116  LYS116      0.0038
     54  CD        27.5910  156.5440   51.7090 C.3   116  LYS116      0.0206
     55  CE        27.7880  155.3670   50.7650 C.3   116  LYS116      0.1093
     56  NZ        26.6080  154.4630   50.7400 N.3   116  LYS116     -0.1314
     57  N         30.8320  160.2740   54.0430 N.am  117  THR117     -0.1951
     58  CA        31.7880  161.3700   54.1870 C.3   117  THR117      0.1897
     59  C         33.1960  160.8050   54.3540 C.2   117  THR117      0.2313
     60  O         34.1670  161.3480   53.8240 O.2   117  THR117     -0.2863
     61  CB        31.4640  162.2500   55.4100 C.3   117  THR117      0.1794
     62  OG1       30.1970  162.8950   55.2230 O.3   117  THR117     -0.2208
     63  CG2       32.5360  163.3110   55.5980 C.3   117  THR117      0.0378
     64  N         31.9810  166.8280   62.5760 N.3   158  GLU158     -0.1245
     65  CA        30.5890  167.0970   62.9030 C.3   158  GLU158      0.1567
     66  C         30.4190  167.0310   64.4150 C.2   158  GLU158      0.2260
     67  O         30.9950  166.1650   65.0710 O.2   158  GLU158     -0.2867
     68  CB        29.6860  166.0540   62.2440 C.3   158  GLU158      0.0388
     69  CG        30.3210  164.6780   62.1500 C.3   158  GLU158      0.1160
     70  CD        29.4780  163.7040   61.3580 C.2   158  GLU158      0.3649
     71  OE1       29.2750  163.9400   60.1480 O.co2 158  GLU158     -0.2457
     72  OE2       29.0170  162.7040   61.9480 O.co2 158  GLU158     -0.2457
     73  N         28.0790  161.3320   64.6310 N.3   162  ASN162     -0.1240
     74  CA        27.1540  160.2730   64.2450 C.3   162  ASN162      0.1653
     75  C         27.8260  158.9070   64.3750 C.2   162  ASN162      0.2266
     76  O         28.9360  158.7040   63.8840 O.2   162  ASN162     -0.2867
     77  CB        26.6910  160.4800   62.7990 C.3   162  ASN162      0.1155
     78  CG        25.7640  159.3750   62.3110 C.2   162  ASN162      0.2627
     79  OD1       24.6480  159.6390   61.8650 O.2   162  ASN162     -0.2716
     80  ND2       26.2270  158.1300   62.3930 N.am  162  ASN162     -0.0877
     81  N         30.2220  170.2520   61.0630 N.3   187  ASP187     -0.1239
     82  CA        28.9860  169.7310   60.5110 C.3   187  ASP187      0.1674
     83  C         27.9910  169.6170   61.6560 C.2   187  ASP187      0.2266
     84  O         27.8470  168.5570   62.2690 O.2   187  ASP187     -0.2867
     85  CB        29.2100  168.3610   59.8800 C.3   187  ASP187      0.1410
     86  CG        27.9600  167.8190   59.2180 C.2   187  ASP187      0.3668
     87  OD1       26.8550  168.3070   59.5370 O.co2 187  ASP187     -0.2456
     88  OD2       28.0760  166.9060   58.3770 O.co2 187  ASP187     -0.2456
     89  N         24.9270  169.3230   61.6910 N.3   189  THR189     -0.1203
     90  CA        23.6650  168.7700   61.2150 C.3   189  THR189      0.1994
     91  C         22.7420  168.4110   62.3630 C.2   189  THR189      0.2617
     92  O         21.6170  168.9060   62.4490 O.2   189  THR189     -0.2717
     93  CB        23.8910  167.4940   60.4050 C.3   189  THR189      0.1784
     94  OG1       24.5400  167.8220   59.1730 O.3   189  THR189     -0.2211
     95  CG2       22.5590  166.8080   60.1170 C.3   189  THR189      0.0376
     96  N         23.2380  167.5370   63.2320 N.am  190  PHE190     -0.1975
     97  CA        22.4960  167.0500   64.3890 C.3   190  PHE190      0.1639
     98  C         22.1150  168.1460   65.3590 C.2   190  PHE190      0.2290
     99  O         21.0810  168.0730   66.0190 O.2   190  PHE190     -0.2864
    100  CB        23.3300  166.0260   65.1410 C.3   190  PHE190      0.0560
    101  CG        23.2190  164.6430   64.6030 C.ar  190  PHE190     -0.0200
    102  CD1       22.1430  163.8360   64.9520 C.ar  190  PHE190     -0.0042
    103  CD2       24.2070  164.1300   63.7700 C.ar  190  PHE190     -0.0042
    104  CE1       22.0530  162.5340   64.4830 C.ar  190  PHE190     -0.0003
    105  CE2       24.1290  162.8280   63.2930 C.ar  190  PHE190     -0.0003
    106  CZ        23.0490  162.0250   63.6510 C.ar  190  PHE190     -0.0000
    107  N         28.3130  173.6110   58.2070 N.3   207  LEU207     -0.1245
    108  CA        27.4700  173.0680   57.1590 C.3   207  LEU207      0.1561
    109  C         26.4260  172.1380   57.7400 C.2   207  LEU207      0.2260
    110  O         26.6400  171.5160   58.7730 O.2   207  LEU207     -0.2867
    111  CB        28.3130  172.3220   56.1300 C.3   207  LEU207      0.0270
    112  CG        28.7590  170.9090   56.4900 C.3   207  LEU207      0.0019
    113  CD1       27.7640  169.9020   55.9450 C.3   207  LEU207      0.0001
    114  CD2       30.1370  170.6570   55.9120 C.3   207  LEU207      0.0001
    115  N         22.8650  169.3660   56.7250 N.3   209  SER209     -0.1217
    116  CA        22.2040  168.5180   55.7590 C.3   209  SER209      0.1889
    117  C         20.7260  168.8850   55.9310 C.2   209  SER209      0.2288
    118  O         20.0070  168.2530   56.7040 O.2   209  SER209     -0.2866
    119  CB        22.4440  167.0530   56.1020 C.3   209  SER209      0.2089
    120  OG        21.5000  166.2200   55.4580 O.3   209  SER209     -0.2183
    121  N         18.3870  168.1430   54.6560 N.3   211  THR211     -0.1203
    122  CA        17.5390  166.9820   54.4360 C.3   211  THR211      0.1994
    123  C         16.9100  166.5310   55.7510 C.2   211  THR211      0.2617
    124  O         15.8190  165.9690   55.7720 O.2   211  THR211     -0.2717
    125  CB        18.3580  165.8110   53.9020 C.3   211  THR211      0.1784
    126  OG1       19.1570  166.2520   52.8020 O.3   211  THR211     -0.2211
    127  CG2       17.4510  164.6950   53.4560 C.3   211  THR211      0.0376
    128  N         17.6100  166.7910   56.8500 N.am  212  LYS212     -0.1979
    129  CA        17.1610  166.3860   58.1760 C.3   212  LYS212      0.1596
    130  C         16.2400  167.3500   58.9110 C.2   212  LYS212      0.2287
    131  O         15.0330  167.3470   58.6870 O.2   212  LYS212     -0.2864
    132  CB        18.3760  166.0850   59.0520 C.3   212  LYS212      0.0298
    133  CG        19.4640  165.2930   58.3420 C.3   212  LYS212      0.0038
    134  CD        18.9700  163.9040   57.9540 C.3   212  LYS212      0.0206
    135  CE        19.7410  163.3370   56.7680 C.3   212  LYS212      0.1093
    136  NZ        19.6800  161.8480   56.7350 N.3   212  LYS212     -0.1314
    137  N         15.8450  166.6840   49.8440 N.3   221  LEU221     -0.1245
    138  CA        17.2720  166.5990   50.1410 C.3   221  LEU221      0.1561
    139  C         17.8980  167.9550   49.8330 C.2   221  LEU221      0.2260
    140  O         17.4410  168.6640   48.9370 O.2   221  LEU221     -0.2867
    141  CB        17.9570  165.5300   49.2790 C.3   221  LEU221      0.0270
    142  CG        17.3990  164.1060   49.1470 C.3   221  LEU221      0.0019
    143  CD1       18.5590  163.1340   49.0000 C.3   221  LEU221      0.0001
    144  CD2       16.5560  163.7310   50.3500 C.3   221  LEU221      0.0001
    145  N         16.5890  155.1010   56.9910 N.3   338  PRO338     -0.2102
    146  CA        17.6940  156.0230   57.2560 C.3   338  PRO338      0.1504
    147  C         17.1370  157.4130   57.5350 C.2   338  PRO338      0.2576
    148  O         15.9440  157.5620   57.7870 O.2   338  PRO338     -0.2718
    149  CB        18.5220  155.9870   55.9680 C.3   338  PRO338      0.0282
    150  CG        18.0020  154.8130   55.1830 C.3   338  PRO338      0.0208
    151  CD        16.5740  154.6680   55.5840 C.3   338  PRO338      0.0893
    152  N         17.9980  158.4240   57.4880 N.am  339  SER339     -0.1938
    153  CA        17.5870  159.8040   57.7370 C.3   339  SER339      0.2055
    154  C         17.0650  160.0230   59.1570 C.2   339  SER339      0.2643
    155  O         16.9300  159.0780   59.9320 O.2   339  SER339     -0.2714
    156  CB        16.5190  160.2260   56.7280 C.3   339  SER339      0.2130
    157  OG        16.4330  161.6400   56.6440 O.3   339  SER339     -0.2179
    158  N         16.7630  161.2790   59.4800 N.am  340  PHE340     -0.1973
    159  CA        16.2770  161.6490   60.8060 C.3   340  PHE340      0.1639
    160  C         16.0170  163.1550   60.8950 C.2   340  PHE340      0.2290
    161  O         16.5610  163.9360   60.1130 O.2   340  PHE340     -0.2864
    162  CB        17.3270  161.2820   61.8480 C.3   340  PHE340      0.0560
    163  CG        18.6580  161.9460   61.6180 C.ar  340  PHE340     -0.0200
    164  CD1       18.8900  163.2440   62.0620 C.ar  340  PHE340     -0.0042
    165  CD2       19.6780  161.2830   60.9430 C.ar  340  PHE340     -0.0042
    166  CE1       20.1220  163.8730   61.8340 C.ar  340  PHE340     -0.0003
    167  CE2       20.9100  161.9050   60.7120 C.ar  340  PHE340     -0.0003
    168  CZ        21.1300  163.1990   61.1580 C.ar  340  PHE340     -0.0000
    169  N         16.5480  152.8030   63.3060 N.3   348  ASP348     -0.1239
    170  CA        17.3990  151.9800   62.4670 C.3   348  ASP348      0.1674
    171  C         18.5200  151.3330   63.2630 C.2   348  ASP348      0.2266
    172  O         18.8820  151.8000   64.3400 O.2   348  ASP348     -0.2867
    173  CB        17.9780  152.8200   61.3230 C.3   348  ASP348      0.1410
    174  CG        19.2630  153.5210   61.7010 C.2   348  ASP348      0.3668
    175  OD1       19.3450  154.0260   62.8390 O.co2 348  ASP348     -0.2456
    176  OD2       20.1910  153.5720   60.8620 O.co2 348  ASP348     -0.2456
    177  N         21.5970  148.8530   58.8330 N.3   353  MET353     -0.1230
    178  CA        21.2150  149.9910   58.0110 C.3   353  MET353      0.1702
    179  C         22.3090  150.6110   57.1430 C.2   353  MET353      0.2593
    180  O         22.0480  150.9850   56.0000 O.2   353  MET353     -0.2718
    181  CB        20.6080  151.0830   58.8890 C.3   353  MET353      0.0401
    182  CG        19.6400  151.9830   58.1470 C.3   353  MET353      0.0596
    183  SD        18.9680  151.1860   56.6700 S.3   353  MET353     -0.1393
    184  CE        17.2430  151.5180   56.8750 C.3   353  MET353      0.0692
    185  N         23.5240  150.7270   57.6710 N.am  354  SER354     -0.1952
    186  CA        24.6040  151.3400   56.9020 C.3   354  SER354      0.1924
    187  C         25.9870  150.7120   57.0710 C.2   354  SER354      0.2314
    188  O         27.0000  151.3730   56.8370 O.2   354  SER354     -0.2863
    189  CB        24.6920  152.8340   57.2370 C.3   354  SER354      0.2116
    190  OG        23.5070  153.3000   57.8600 O.3   354  SER354     -0.2180
    191  N         19.5470  153.5590   66.7690 N.3   374  ARG374     -0.1245
    192  CA        19.4910  155.0070   66.6130 C.3   374  ARG374      0.1563
    193  C         18.0460  155.4670   66.4750 C.2   374  ARG374      0.2260
    194  O         17.4070  155.2530   65.4430 O.2   374  ARG374     -0.2867
    195  CB        20.2880  155.4350   65.3820 C.3   374  ARG374      0.0307
    196  CG        20.9550  156.7890   65.5190 C.3   374  ARG374      0.0489
    197  CD        20.5180  157.7360   64.4060 C.3   374  ARG374      0.2205
    198  NE        21.3830  157.6480   63.2300 N.pl3 374  ARG374     -0.0865
    199  CZ        20.9500  157.4370   61.9880 C.cat 374  ARG374      0.5346
    200  NH1       19.6540  157.2930   61.7400 N.pl3 374  ARG374      0.1354
    201  NH2       21.8180  157.3560   60.9920 N.pl3 374  ARG374      0.1354
@<TRIPOS>BOND
     1     1     2    1
     2     6     5    1
     3     5     2    1
     4   140   139    2
     5   143   142    1
     6     2     3    1
     7   142   141    1
     8   142   144    1
     9   141   138    1
    10     4     3    2
    11    13    14    2
    12    13    12    1
    13   139   138    1
    14   137   138    1
    15    15    12    1
    16    15    16    1
    17     3     7   am
    18    12    11    1
    19    56    55    1
    20    55    54    1
    21    22    21    2
    22    16    17    1
    23    21    20    1
    24    18    17    1
    25    53    54    1
    26    53    52    1
    27    11     9   am
    28     7     8    1
    29    19    20    1
    30    10     9    2
    31     9     8    1
    32    20    23    1
    33    52    49    1
    34    51    50    2
    35   126   125    1
    36    23    24    1
    37    49    50    1
    38    49    48    1
    39    50    57   am
    40   127   125    1
    41    36    35    1
    42    60    59    2
    43   125   122    1
    44    57    58    1
    45    58    59    1
    46    58    61    1
    47    47    45    1
    48    48    39   am
    49   122   121    1
    50   122   123    1
    51    34    35   ar
    52    34    32   ar
    53    35    33   ar
    54    40    39    2
    55    45    46    1
    56    45    44    2
    57   150   151    1
    58   150   149    1
    59    62    61    1
    60    39    38    1
    61    61    63    1
    62   120   119    1
    63    42    41    1
    64    42    43    1
    65    44    43    1
    66   151   145    1
    67   123   124    2
    68   123   128   am
    69   116   117    1
    70   116   119    1
    71   116   115    1
    72    32    30   ar
    73   114   112    1
    74   117   118    2
    75   113   112    1
    76   149   146    1
    77   180   179    2
    78    33    31   ar
    79   111   112    1
    80   111   108    1
    81    41    38    1
    82    38    37    1
    83   157   156    1
    84   183   184    1
    85   183   182    1
    86   156   153    1
    87   136   135    1
    88   135   134    1
    89    28    27    2
    90   188   187    2
    91   128   129    1
    92   186   187    1
    93   186   189    1
    94   186   185    1
    95   145   146    1
    96    30    31   ar
    97    30    29    1
    98   179   185   am
    99   179   178    1
   100   108   109    1
   101   108   107    1
   102   189   190    1
   103   146   147    1
   104   152   147   am
   105   152   153    1
   106   147   148    2
   107    37    27   am
   108    27    26    1
   109   153   154    1
   110   109   110    2
   111   134   133    1
   112   178   177    1
   113   178   181    1
   114   182   181    1
   115   129   130    1
   116   129   132    1
   117    29    26    1
   118   133   132    1
   119    88    86   ar
   120   131   130    2
   121    26    25    1
   122   154   158   am
   123   154   155    2
   124    94    93    1
   125    86    87   ar
   126    86    85    1
   127   158   159    1
   128    85    82    1
   129   161   160    2
   130    95    93    1
   131    71    70   ar
   132    93    90    1
   133    82    81    1
   134    82    83    1
   135   167   165   ar
   136   167   168   ar
   137   159   160    1
   138   159   162    1
   139   176   174   ar
   140   165   163   ar
   141   201   199    1
   142   168   166   ar
   143    90    89    1
   144    90    91    1
   145   173   174    1
   146   173   170    1
   147    70    72   ar
   148    70    69    1
   149   163   162    1
   150   163   164   ar
   151    83    84    2
   152   174   175   ar
   153   200   199    1
   154   166   164   ar
   155    79    78    2
   156   199   198    2
   157    69    68    1
   158    68    65    1
   159    78    80   am
   160    78    77    1
   161    91    92    2
   162    91    96   am
   163   170   171    1
   164   170   169    1
   165    64    65    1
   166    77    74    1
   167    65    66    1
   168   198   197    1
   169    96    97    1
   170   171   172    2
   171   105   106   ar
   172   105   103   ar
   173   106   104   ar
   174   103   101   ar
   175    76    75    2
   176    74    75    1
   177    74    73    1
   178    97   100    1
   179    97    98    1
   180   197   196    1
   181    66    67    2
   182   104   102   ar
   183   101   102   ar
   184   101   100    1
   185    98    99    2
   186   195   196    1
   187   195   192    1
   188   194   193    2
   189   193   192    1
   190   192   191    1
