@<TRIPOS>MOLECULE
tmp/1i43E01.pdb
 113 109 0 0 0
SMALL
GASTEIGER

@<TRIPOS>ATOM
      1  N        252.7240  -34.1620  165.6290 N.3   114  TYR114     -0.1227
      2  CA       251.4760  -34.0520  164.8740 C.3   114  TYR114      0.1736
      3  C        251.4040  -35.1770  163.8390 C.2   114  TYR114      0.2595
      4  O        252.3160  -35.3450  163.0250 O.2   114  TYR114     -0.2718
      5  CB       251.4000  -32.6870  164.1780 C.3   114  TYR114      0.0548
      6  CG       250.1500  -32.4750  163.3530 C.ar  114  TYR114     -0.0200
      7  CD1      248.9110  -32.2960  163.9620 C.ar  114  TYR114     -0.0009
      8  CD2      250.2050  -32.4540  161.9570 C.ar  114  TYR114     -0.0009
      9  CE1      247.7520  -32.1000  163.2020 C.ar  114  TYR114      0.0417
     10  CE2      249.0540  -32.2600  161.1880 C.ar  114  TYR114      0.0417
     11  CZ       247.8330  -32.0830  161.8170 C.ar  114  TYR114      0.1957
     12  OH       246.6970  -31.8860  161.0630 O.3   114  TYR114     -0.2866
     13  N        250.3100  -35.9360  163.8780 N.am  115  ARG115     -0.1966
     14  CA       250.1010  -37.0740  162.9770 C.3   115  ARG115      0.1729
     15  C        250.6990  -36.9190  161.5850 C.2   115  ARG115      0.2616
     16  O        251.7010  -37.5540  161.2580 O.2   115  ARG115     -0.2715
     17  CB       248.6080  -37.3860  162.8420 C.3   115  ARG115      0.0348
     18  CG       248.3230  -38.6380  162.0210 C.3   115  ARG115      0.0492
     19  CD       247.5190  -39.6600  162.8090 C.3   115  ARG115      0.2205
     20  NE       247.7190  -41.0240  162.3210 N.pl3 115  ARG115     -0.0865
     21  CZ       246.8150  -41.7170  161.6330 C.cat 115  ARG115      0.5346
     22  NH1      245.6360  -41.1780  161.3470 N.pl3 115  ARG115      0.1354
     23  NH2      247.0850  -42.9540  161.2380 N.pl3 115  ARG115      0.1354
     24  N        250.0700  -36.0840  160.7660 N.am  116  LYS116     -0.1977
     25  CA       250.5290  -35.8460  159.4010 C.3   116  LYS116      0.1596
     26  C        252.0320  -35.5970  159.2960 C.2   116  LYS116      0.2287
     27  O        252.6660  -36.0460  158.3410 O.2   116  LYS116     -0.2864
     28  CB       249.7750  -34.6640  158.7910 C.3   116  LYS116      0.0298
     29  CG       248.8370  -35.0540  157.6560 C.3   116  LYS116      0.0038
     30  CD       247.4320  -35.3640  158.1670 C.3   116  LYS116      0.0206
     31  CE       247.0540  -36.8140  157.9030 C.3   116  LYS116      0.1093
     32  NZ       246.4140  -36.9800  156.5680 N.3   116  LYS116     -0.1314
     33  N        250.3670  -31.7290  170.8130 N.3   162  ASN162     -0.1240
     34  CA       248.9860  -32.0950  170.4850 C.3   162  ASN162      0.1653
     35  C        248.7870  -33.5950  170.7060 C.2   162  ASN162      0.2266
     36  O        249.5850  -34.4060  170.2410 O.2   162  ASN162     -0.2867
     37  CB       248.6670  -31.7600  169.0210 C.3   162  ASN162      0.1155
     38  CG       247.2510  -32.1770  168.6100 C.2   162  ASN162      0.2627
     39  OD1      246.2710  -31.5210  168.9650 O.2   162  ASN162     -0.2716
     40  ND2      247.1450  -33.2680  167.8580 N.am  162  ASN162     -0.0877
     41  N        245.4870  -21.3470  162.6150 N.3   212  LYS212     -0.1245
     42  CA       244.8800  -21.4300  163.9350 C.3   212  LYS212      0.1561
     43  C        244.6480  -20.1030  164.6470 C.2   212  LYS212      0.2260
     44  O        243.6510  -19.4230  164.4060 O.2   212  LYS212     -0.2867
     45  CB       245.7280  -22.3520  164.8140 C.3   212  LYS212      0.0271
     46  CG       246.1400  -23.6510  164.1150 C.3   212  LYS212      0.0035
     47  CD       245.0530  -24.7160  164.2320 C.3   212  LYS212      0.0206
     48  CE       245.1610  -25.7640  163.1370 C.3   212  LYS212      0.1093
     49  NZ       246.3780  -26.5930  163.3490 N.3   212  LYS212     -0.1314
     50  N        237.5580  -30.0500  162.9850 N.3   338  PRO338     -0.2102
     51  CA       238.9820  -30.0390  163.3190 C.3   338  PRO338      0.1504
     52  C        239.4540  -28.6070  163.4860 C.2   338  PRO338      0.2576
     53  O        238.6400  -27.6890  163.5230 O.2   338  PRO338     -0.2718
     54  CB       239.6460  -30.7230  162.1270 C.3   338  PRO338      0.0282
     55  CG       238.5640  -30.9190  161.0890 C.3   338  PRO338      0.0208
     56  CD       237.3420  -30.1900  161.5370 C.3   338  PRO338      0.0893
     57  N        240.7670  -28.4210  163.5780 N.am  339  SER339     -0.1938
     58  CA       241.3480  -27.0950  163.7490 C.3   339  SER339      0.2055
     59  C        241.0170  -26.4900  165.1170 C.2   339  SER339      0.2643
     60  O        240.2920  -27.0880  165.9160 O.2   339  SER339     -0.2714
     61  CB       240.8680  -26.1630  162.6380 C.3   339  SER339      0.2130
     62  OG       241.7100  -25.0280  162.5320 O.3   339  SER339     -0.2179
     63  N        241.5530  -25.2980  165.3750 N.am  340  PHE340     -0.1973
     64  CA       241.3490  -24.6080  166.6490 C.3   340  PHE340      0.1639
     65  C        242.0190  -23.2330  166.6390 C.2   340  PHE340      0.2290
     66  O        242.8540  -22.9510  165.7830 O.2   340  PHE340     -0.2864
     67  CB       241.9570  -25.4350  167.7800 C.3   340  PHE340      0.0560
     68  CG       243.4130  -25.7250  167.5850 C.ar  340  PHE340     -0.0200
     69  CD1      244.3780  -24.8050  167.9770 C.ar  340  PHE340     -0.0042
     70  CD2      243.8210  -26.9000  166.9700 C.ar  340  PHE340     -0.0042
     71  CE1      245.7290  -25.0490  167.7590 C.ar  340  PHE340     -0.0003
     72  CE2      245.1700  -27.1560  166.7470 C.ar  340  PHE340     -0.0003
     73  CZ       246.1270  -26.2260  167.1430 C.ar  340  PHE340     -0.0000
     74  N        235.9570  -31.9110  169.4790 N.3   348  ASP348     -0.1239
     75  CA       236.1810  -33.1020  168.6710 C.3   348  ASP348      0.1674
     76  C        236.8170  -34.2160  169.4870 C.2   348  ASP348      0.2266
     77  O        237.4190  -33.9750  170.5340 O.2   348  ASP348     -0.2867
     78  CB       237.0560  -32.7760  167.4480 C.3   348  ASP348      0.1410
     79  CG       238.5410  -32.9830  167.7050 C.2   348  ASP348      0.3668
     80  OD1      239.0050  -32.6600  168.8160 O.co2 348  ASP348     -0.2456
     81  OD2      239.2470  -33.4630  166.7930 O.co2 348  ASP348     -0.2456
     82  N        239.6060  -36.6750  169.0650 N.3   350  PRO350     -0.2116
     83  CA       240.7890  -37.0900  168.3050 C.3   350  PRO350      0.1372
     84  C        240.7340  -38.5530  167.8810 C.2   350  PRO350      0.2244
     85  O        241.1720  -38.9100  166.7900 O.2   350  PRO350     -0.2868
     86  CB       241.9410  -36.8020  169.2600 C.3   350  PRO350      0.0268
     87  CG       241.4660  -35.6170  170.0390 C.3   350  PRO350      0.0207
     88  CD       239.9560  -35.7350  170.1440 C.3   350  PRO350      0.0892
     89  N        238.0000  -38.2710  165.0850 N.3   353  MET353     -0.1230
     90  CA       238.4370  -37.2720  164.1290 C.3   353  MET353      0.1702
     91  C        239.7510  -37.5360  163.3870 C.2   353  MET353      0.2593
     92  O        239.8090  -37.3940  162.1660 O.2   353  MET353     -0.2718
     93  CB       238.5170  -35.9210  164.8270 C.3   353  MET353      0.0401
     94  CG       237.3840  -35.0040  164.4690 C.3   353  MET353      0.0596
     95  SD       237.5020  -34.4830  162.7620 S.3   353  MET353     -0.1393
     96  CE       236.2290  -33.2360  162.7200 C.3   353  MET353      0.0692
     97  N        240.8010  -37.9230  164.1060 N.am  354  SER354     -0.1952
     98  CA       242.0900  -38.1410  163.4600 C.3   354  SER354      0.1924
     99  C        242.7340  -39.5200  163.5980 C.2   354  SER354      0.2314
    100  O        243.8540  -39.7200  163.1300 O.2   354  SER354     -0.2863
    101  CB       243.0770  -37.0800  163.9490 C.3   354  SER354      0.2116
    102  OG       242.4240  -36.1170  164.7620 O.3   354  SER354     -0.2180
    103  N        239.1000  -32.9030  172.8520 N.3   374  ARG374     -0.1245
    104  CA       239.9240  -31.7120  172.7290 C.3   374  ARG374      0.1563
    105  C        239.0250  -30.5080  172.5240 C.2   374  ARG374      0.2260
    106  O        238.3440  -30.3990  171.5080 O.2   374  ARG374     -0.2867
    107  CB       240.8900  -31.8360  171.5500 C.3   374  ARG374      0.0307
    108  CG       242.1050  -30.9300  171.6580 C.3   374  ARG374      0.0489
    109  CD       242.1990  -29.9710  170.4910 C.3   374  ARG374      0.2205
    110  NE       242.9580  -30.5400  169.3840 N.pl3 374  ARG374     -0.0865
    111  CZ       242.5060  -30.6340  168.1390 C.cat 374  ARG374      0.5346
    112  NH1      241.2930  -30.1910  167.8340 N.pl3 374  ARG374      0.1354
    113  NH2      243.2630  -31.1770  167.1960 N.pl3 374  ARG374      0.1354
@<TRIPOS>BOND
     1    32    31    1
     2    29    30    1
     3    29    28    1
     4    31    30    1
     5    27    26    2
     6    28    25    1
     7    26    25    1
     8    25    24    1
     9    24    15   am
    10    12    11    1
    11    55    56    1
    12    55    54    1
    13    10    11   ar
    14    10     8   ar
    15    23    21    1
    16    16    15    2
    17    22    21    1
    18    56    50    1
    19    15    14    1
    20    21    20    2
    21    11     9   ar
    22     8     6   ar
    23    18    19    1
    24    18    17    1
    25    54    51    1
    26    92    91    2
    27    20    19    1
    28    62    61    1
    29    41    42    1
    30    61    58    1
    31    96    95    1
    32    95    94    1
    33    17    14    1
    34    14    13    1
    35    50    51    1
    36     4     3    2
    37   100    99    2
    38    48    49    1
    39    48    47    1
    40     9     7   ar
    41    51    52    1
    42     6     7   ar
    43     6     5    1
    44    91    97   am
    45    91    90    1
    46    98    99    1
    47    98   101    1
    48    98    97    1
    49    52    53    2
    50    52    57   am
    51    57    58    1
    52    58    59    1
    53     3    13   am
    54     3     2    1
    55    42    43    1
    56    42    45    1
    57   101   102    1
    58    46    47    1
    59    46    45    1
    60    90    93    1
    61    90    89    1
    62     5     2    1
    63    44    43    2
    64    94    93    1
    65     2     1    1
    66    59    63   am
    67    59    60    2
    68    63    64    1
    69    66    65    2
    70    65    64    1
    71    64    67    1
    72    72    70   ar
    73    72    73   ar
    74    85    84    2
    75    81    79   ar
    76    70    68   ar
    77    73    71   ar
    78   113   111    1
    79    78    79    1
    80    78    75    1
    81    68    67    1
    82    68    69   ar
    83    79    80   ar
    84    71    69   ar
    85   112   111    1
    86    40    38   am
    87    84    83    1
    88   111   110    2
    89    83    82    1
    90    83    86    1
    91    38    39    2
    92    38    37    1
    93    75    74    1
    94    75    76    1
    95    37    34    1
    96    82    88    1
    97    86    87    1
    98   110   109    1
    99    76    77    2
   100    87    88    1
   101    36    35    2
   102    34    35    1
   103    34    33    1
   104   109   108    1
   105   106   105    2
   106   107   108    1
   107   107   104    1
   108   105   104    1
   109   104   103    1
