@<TRIPOS>MOLECULE
tmp/1i48A01.pdb
 181 179 0 0 0
SMALL
GASTEIGER

@<TRIPOS>ATOM
      1  N        -75.4430  -63.0210  170.3280 N.3   113  CYS113     -0.1221
      2  CA       -74.5760  -62.2130  169.4880 C.3   113  CYS113      0.1808
      3  C        -75.3440  -61.6170  168.3260 C.2   113  CYS113      0.2601
      4  O        -76.5110  -61.9430  168.1030 O.2   113  CYS113     -0.2717
      5  CB       -73.4230  -63.0620  168.9490 C.3   113  CYS113      0.0970
      6  SG       -71.7770  -62.4500  169.3800 S.3   113  CYS113     -0.0800
      7  N        -74.6800  -60.7310  167.5930 N.am  114  TYR114     -0.1962
      8  CA       -75.2830  -60.0990  166.4310 C.3   114  TYR114      0.1771
      9  C        -75.2150  -61.1130  165.2950 C.2   114  TYR114      0.2619
     10  O        -74.1250  -61.5170  164.8850 O.2   114  TYR114     -0.2715
     11  CB       -74.5070  -58.8390  166.0530 C.3   114  TYR114      0.0574
     12  CG       -75.2260  -57.9840  165.0450 C.ar  114  TYR114     -0.0198
     13  CD1      -76.4190  -57.3440  165.3750 C.ar  114  TYR114     -0.0009
     14  CD2      -74.7270  -57.8230  163.7540 C.ar  114  TYR114     -0.0009
     15  CE1      -77.1000  -56.5660  164.4470 C.ar  114  TYR114      0.0417
     16  CE2      -75.4000  -57.0460  162.8140 C.ar  114  TYR114      0.0417
     17  CZ       -76.5860  -56.4200  163.1700 C.ar  114  TYR114      0.1957
     18  OH       -77.2580  -55.6440  162.2540 O.3   114  TYR114     -0.2866
     19  N        -76.3820  -61.5290  164.8050 N.am  115  ARG115     -0.1963
     20  CA       -76.4720  -62.5150  163.7300 C.3   115  ARG115      0.1729
     21  C        -75.2200  -62.5530  162.8620 C.2   115  ARG115      0.2616
     22  O        -74.4860  -63.5390  162.8600 O.2   115  ARG115     -0.2715
     23  CB       -77.6990  -62.2360  162.8540 C.3   115  ARG115      0.0348
     24  CG       -78.0320  -63.3520  161.8670 C.3   115  ARG115      0.0492
     25  CD       -78.5360  -64.5980  162.5780 C.3   115  ARG115      0.2205
     26  NE       -78.2800  -65.8090  161.8050 N.pl3 115  ARG115     -0.0865
     27  CZ       -79.1060  -66.3030  160.8870 C.cat 115  ARG115      0.5346
     28  NH1      -80.2520  -65.6890  160.6220 N.pl3 115  ARG115      0.1354
     29  NH2      -78.7850  -67.4100  160.2300 N.pl3 115  ARG115      0.1354
     30  N        -74.9740  -61.4680  162.1370 N.am  116  LYS116     -0.1977
     31  CA       -73.8140  -61.3820  161.2600 C.3   116  LYS116      0.1596
     32  C        -72.5210  -61.7140  161.9950 C.2   116  LYS116      0.2287
     33  O        -71.7950  -62.6280  161.6040 O.2   116  LYS116     -0.2864
     34  CB       -73.7260  -59.9820  160.6470 C.3   116  LYS116      0.0298
     35  CG       -74.2880  -59.8890  159.2270 C.3   116  LYS116      0.0038
     36  CD       -75.7240  -60.4120  159.1350 C.3   116  LYS116      0.0206
     37  CE       -76.0270  -60.9960  157.7540 C.3   116  LYS116      0.1093
     38  NZ       -77.4070  -61.5670  157.6460 N.3   116  LYS116     -0.1314
     39  N        -77.7390  -58.8460  172.7050 N.3   162  ASN162     -0.1240
     40  CA       -78.8790  -58.7850  171.8030 C.3   162  ASN162      0.1653
     41  C        -79.4620  -60.1830  171.6190 C.2   162  ASN162      0.2266
     42  O        -78.7240  -61.1600  171.4810 O.2   162  ASN162     -0.2867
     43  CB       -78.4470  -58.2190  170.4460 C.3   162  ASN162      0.1155
     44  CG       -79.6100  -58.0620  169.4810 C.2   162  ASN162      0.2627
     45  OD1      -79.9060  -56.9610  169.0210 O.2   162  ASN162     -0.2716
     46  ND2      -80.2740  -59.1680  169.1690 N.am  162  ASN162     -0.0877
     47  N        -75.2410  -51.0990  172.1820 N.3   190  PHE190     -0.1241
     48  CA       -76.5050  -50.8630  172.8660 C.3   190  PHE190      0.1605
     49  C        -76.3820  -49.9180  174.0490 C.2   190  PHE190      0.2264
     50  O        -77.3240  -49.2080  174.3830 O.2   190  PHE190     -0.2867
     51  CB       -77.0790  -52.1840  173.3600 C.3   190  PHE190      0.0534
     52  CG       -77.9790  -52.8550  172.3790 C.ar  190  PHE190     -0.0203
     53  CD1      -79.1340  -52.2250  171.9360 C.ar  190  PHE190     -0.0042
     54  CD2      -77.6750  -54.1200  171.8980 C.ar  190  PHE190     -0.0042
     55  CE1      -79.9780  -52.8470  171.0230 C.ar  190  PHE190     -0.0003
     56  CE2      -78.5100  -54.7510  170.9850 C.ar  190  PHE190     -0.0003
     57  CZ       -79.6650  -54.1130  170.5460 C.ar  190  PHE190     -0.0000
     58  N        -83.5420  -49.4470  174.0340 N.3   312  ALA312     -0.1231
     59  CA       -83.9940  -50.6540  173.3630 C.3   312  ALA312      0.1694
     60  C        -84.7110  -51.5590  174.3550 C.2   312  ALA312      0.2592
     61  O        -84.2570  -51.7400  175.4850 O.2   312  ALA312     -0.2718
     62  CB       -82.8140  -51.3800  172.7470 C.3   312  ALA312      0.0304
     63  N        -85.8370  -52.1210  173.9300 N.am  313  VAL313     -0.1966
     64  CA       -86.6110  -53.0100  174.7830 C.3   313  VAL313      0.1727
     65  C        -87.1620  -54.1870  174.0010 C.2   313  VAL313      0.2616
     66  O        -87.8170  -54.0130  172.9740 O.2   313  VAL313     -0.2715
     67  CB       -87.7960  -52.2810  175.4260 C.3   313  VAL313      0.0290
     68  CG1      -88.7500  -53.2900  176.0390 C.3   313  VAL313      0.0023
     69  CG2      -87.2970  -51.3180  176.4800 C.3   313  VAL313      0.0023
     70  N        -86.8910  -55.3870  174.4960 N.am  314  SER314     -0.1950
     71  CA       -87.3740  -56.6020  173.8630 C.3   314  SER314      0.1924
     72  C        -88.4590  -57.1840  174.7490 C.2   314  SER314      0.2314
     73  O        -88.4160  -57.0350  175.9690 O.2   314  SER314     -0.2863
     74  CB       -86.2410  -57.6130  173.7170 C.3   314  SER314      0.2116
     75  OG       -85.5690  -57.4390  172.4860 O.3   314  SER314     -0.2180
     76  N        -88.1840  -52.3540  160.6220 N.3   337  ALA337     -0.1231
     77  CA       -86.9150  -52.5600  159.9330 C.3   337  ALA337      0.1679
     78  C        -85.8150  -52.8690  160.9340 C.2   337  ALA337      0.2434
     79  O        -86.0110  -52.7320  162.1430 O.2   337  ALA337     -0.2733
     80  CB       -86.5500  -51.3120  159.1400 C.3   337  ALA337      0.0304
     81  N        -84.6460  -53.3120  160.4480 N.am  338  PRO338     -0.2718
     82  CA       -83.5470  -53.6160  161.3690 C.3   338  PRO338      0.1535
     83  C        -83.0380  -52.3120  161.9840 C.2   338  PRO338      0.2599
     84  O        -83.7860  -51.3410  162.1050 O.2   338  PRO338     -0.2715
     85  CB       -82.4940  -54.2730  160.4800 C.3   338  PRO338      0.0310
     86  CG       -83.1980  -54.5870  159.1970 C.3   338  PRO338      0.0237
     87  CD       -84.2750  -53.5770  159.0520 C.3   338  PRO338      0.0939
     88  N        -81.7680  -52.2840  162.3660 N.am  339  SER339     -0.1936
     89  CA       -81.1890  -51.0830  162.9530 C.3   339  SER339      0.2055
     90  C        -81.9850  -50.5500  164.1380 C.2   339  SER339      0.2643
     91  O        -83.1090  -50.9770  164.3950 O.2   339  SER339     -0.2714
     92  CB       -81.0690  -49.9880  161.8980 C.3   339  SER339      0.2130
     93  OG       -80.1940  -48.9630  162.3370 O.3   339  SER339     -0.2179
     94  N        -81.3900  -49.5970  164.8480 N.am  340  PHE340     -0.1973
     95  CA       -82.0080  -48.9970  166.0250 C.3   340  PHE340      0.1639
     96  C        -81.1400  -47.8560  166.5370 C.2   340  PHE340      0.2290
     97  O        -79.9910  -47.7050  166.1250 O.2   340  PHE340     -0.2864
     98  CB       -82.1220  -50.0410  167.1240 C.3   340  PHE340      0.0560
     99  CG       -80.8100  -50.6780  167.4780 C.ar  340  PHE340     -0.0200
    100  CD1      -79.9770  -50.1020  168.4290 C.ar  340  PHE340     -0.0042
    101  CD2      -80.4000  -51.8500  166.8540 C.ar  340  PHE340     -0.0042
    102  CE1      -78.7530  -50.6870  168.7520 C.ar  340  PHE340     -0.0003
    103  CE2      -79.1800  -52.4420  167.1700 C.ar  340  PHE340     -0.0003
    104  CZ       -78.3560  -51.8590  168.1220 C.ar  340  PHE340     -0.0000
    105  N        -88.1950  -47.7430  166.0190 N.3   346  ILE346     -0.1231
    106  CA       -88.1640  -48.9250  165.1660 C.3   346  ILE346      0.1692
    107  C        -88.5890  -50.1920  165.9020 C.2   346  ILE346      0.2592
    108  O        -88.3200  -50.3470  167.0940 O.2   346  ILE346     -0.2718
    109  CB       -86.7510  -49.1520  164.5920 C.3   346  ILE346      0.0266
    110  CG1      -86.2580  -47.8780  163.9040 C.3   346  ILE346      0.0019
    111  CG2      -86.7690  -50.3060  163.6060 C.3   346  ILE346      0.0020
    112  CD1      -84.7950  -47.9170  163.5130 C.3   346  ILE346      0.0001
    113  N        -89.2550  -51.0910  165.1810 N.am  347  VAL347     -0.1966
    114  CA       -89.7130  -52.3640  165.7320 C.3   347  VAL347      0.1727
    115  C        -89.3920  -53.4590  164.7440 C.2   347  VAL347      0.2616
    116  O        -89.1120  -53.1860  163.5820 O.2   347  VAL347     -0.2715
    117  CB       -91.2280  -52.3980  165.9370 C.3   347  VAL347      0.0290
    118  CG1      -91.5490  -52.2730  167.4040 C.3   347  VAL347      0.0023
    119  CG2      -91.8890  -51.3000  165.1240 C.3   347  VAL347      0.0023
    120  N        -89.4410  -54.7020  165.2000 N.am  348  ASP348     -0.1971
    121  CA       -89.1730  -55.8220  164.3170 C.3   348  ASP348      0.1709
    122  C        -89.4380  -57.1380  165.0150 C.2   348  ASP348      0.2293
    123  O        -89.5080  -57.2000  166.2420 O.2   348  ASP348     -0.2864
    124  CB       -87.7290  -55.7690  163.8040 C.3   348  ASP348      0.1436
    125  CG       -86.7610  -56.5050  164.6980 C.2   348  ASP348      0.3671
    126  OD1      -86.9730  -56.5100  165.9260 O.co2 348  ASP348     -0.2456
    127  OD2      -85.7840  -57.0760  164.1740 O.co2 348  ASP348     -0.2456
    128  N        -87.5780  -60.9270  160.8280 N.3   353  MET353     -0.1230
    129  CA       -86.6100  -59.8960  160.4870 C.3   353  MET353      0.1702
    130  C        -85.2110  -60.3920  160.1490 C.2   353  MET353      0.2593
    131  O        -84.5570  -59.8380  159.2680 O.2   353  MET353     -0.2718
    132  CB       -86.5190  -58.8630  161.6140 C.3   353  MET353      0.0401
    133  CG       -85.7900  -57.5880  161.2110 C.3   353  MET353      0.0596
    134  SD       -86.0840  -57.1400  159.4820 S.3   353  MET353     -0.1393
    135  CE       -87.4620  -55.9890  159.6530 C.3   353  MET353      0.0692
    136  N        -84.7390  -61.4280  160.8290 N.am  354  SER354     -0.1938
    137  CA       -83.3980  -61.9080  160.5340 C.3   354  SER354      0.2055
    138  C        -83.1470  -63.3480  160.9330 C.2   354  SER354      0.2643
    139  O        -82.0000  -63.7630  161.0790 O.2   354  SER354     -0.2714
    140  CB       -82.3760  -61.0070  161.2210 C.3   354  SER354      0.2130
    141  OG       -82.9680  -60.3610  162.3340 O.3   354  SER354     -0.2179
    142  N        -84.2140  -64.1160  161.1030 N.am  355  TYR355     -0.1973
    143  CA       -84.0690  -65.5120  161.4870 C.3   355  TYR355      0.1639
    144  C        -85.0460  -66.3880  160.7330 C.2   355  TYR355      0.2290
    145  O        -85.1070  -67.5980  160.9450 O.2   355  TYR355     -0.2864
    146  CB       -84.2870  -65.6670  162.9870 C.3   355  TYR355      0.0560
    147  CG       -83.1060  -65.2100  163.8030 C.ar  355  TYR355     -0.0198
    148  CD1      -83.0220  -63.8990  164.2660 C.ar  355  TYR355     -0.0009
    149  CD2      -82.0630  -66.0840  164.1010 C.ar  355  TYR355     -0.0009
    150  CE1      -81.9240  -63.4680  165.0100 C.ar  355  TYR355      0.0417
    151  CE2      -80.9610  -65.6660  164.8430 C.ar  355  TYR355      0.0417
    152  CZ       -80.8970  -64.3580  165.2960 C.ar  355  TYR355      0.1957
    153  OH       -79.8120  -63.9420  166.0410 O.3   355  TYR355     -0.2866
    154  N        -88.6580  -56.7830  169.1480 N.3   374  ARG374     -0.1231
    155  CA       -87.6570  -55.7940  169.5110 C.3   374  ARG374      0.1694
    156  C        -88.2410  -54.4270  169.2290 C.2   374  ARG374      0.2592
    157  O        -88.8990  -54.2230  168.2080 O.2   374  ARG374     -0.2718
    158  CB       -86.3830  -55.9870  168.6920 C.3   374  ARG374      0.0321
    159  CG       -85.6070  -57.2360  169.0470 C.3   374  ARG374      0.0489
    160  CD       -84.3010  -57.3100  168.2840 C.3   374  ARG374      0.2205
    161  NE       -84.5000  -57.7250  166.8980 N.pl3 374  ARG374     -0.0865
    162  CZ       -83.5380  -58.2110  166.1220 C.cat 374  ARG374      0.5346
    163  NH1      -82.3080  -58.3430  166.5970 N.pl3 374  ARG374      0.1354
    164  NH2      -83.8010  -58.5550  164.8680 N.pl3 374  ARG374      0.1354
    165  N        -88.0040  -53.4920  170.1390 N.am  375  PHE375     -0.1962
    166  CA       -88.5180  -52.1480  169.9770 C.3   375  PHE375      0.1771
    167  C        -87.4660  -51.1100  170.3140 C.2   375  PHE375      0.2620
    168  O        -87.1030  -50.9330  171.4740 O.2   375  PHE375     -0.2715
    169  CB       -89.7360  -51.9480  170.8700 C.3   375  PHE375      0.0574
    170  CG       -90.6180  -50.8190  170.4420 C.ar  375  PHE375     -0.0200
    171  CD1      -90.1010  -49.5390  170.2680 C.ar  375  PHE375     -0.0042
    172  CD2      -91.9730  -51.0320  170.2130 C.ar  375  PHE375     -0.0042
    173  CE1      -90.9210  -48.4870  169.8690 C.ar  375  PHE375     -0.0003
    174  CE2      -92.8030  -49.9890  169.8140 C.ar  375  PHE375     -0.0003
    175  CZ       -92.2780  -48.7140  169.6410 C.ar  375  PHE375     -0.0000
    176  N        -86.9640  -50.4340  169.2900 N.am  376  SER376     -0.1950
    177  CA       -85.9790  -49.3880  169.4960 C.3   376  SER376      0.1924
    178  C        -86.7710  -48.1030  169.6210 C.2   376  SER376      0.2314
    179  O        -87.2490  -47.5560  168.6270 O.2   376  SER376     -0.2863
    180  CB       -85.0320  -49.2820  168.3080 C.3   376  SER376      0.2116
    181  OG       -84.2900  -48.0730  168.3710 O.3   376  SER376     -0.2180
@<TRIPOS>BOND
     1    38    37    1
     2    37    36    1
     3    87    86    1
     4    87    81    1
     5    36    35    1
     6    80    77    1
     7    86    85    1
     8    35    34    1
     9   131   130    2
    10   134   135    1
    11   134   133    1
    12    77    76    1
    13    77    78    1
    14   130   129    1
    15   130   136   am
    16    29    27    1
    17    81    78   am
    18    81    82    1
    19    85    82    1
    20   129   128    1
    21   129   132    1
    22   137   136    1
    23   137   138    1
    24   137   140    1
    25    28    27    1
    26    34    31    1
    27   144   145    2
    28   144   143    1
    29    27    26    2
    30   138   139    2
    31   138   142   am
    32    78    79    2
    33   142   143    1
    34   133   132    1
    35   140   141    1
    36    31    32    1
    37    31    30    1
    38    82    83    1
    39   143   146    1
    40    33    32    2
    41    26    25    1
    42    24    25    1
    43    24    23    1
    44    92    93    1
    45    92    89    1
    46    83    84    2
    47    83    88   am
    48    30    21   am
    49    18    17    1
    50    88    89    1
    51    16    17   ar
    52    16    14   ar
    53    23    20    1
    54    22    21    2
    55    21    20    1
    56    89    90    1
    57   146   147    1
    58    17    15   ar
    59   112   110    1
    60   116   115    2
    61   111   109    1
    62    20    19    1
    63    14    12   ar
    64   147   149   ar
    65   147   148   ar
    66   124   121    1
    67   124   125    1
    68   110   109    1
    69   149   151   ar
    70    90    91    2
    71    90    94   am
    72   127   125   ar
    73   148   150   ar
    74   121   122    1
    75   121   120    1
    76    15    13   ar
    77   109   106    1
    78   125   126   ar
    79   115   120   am
    80   115   114    1
    81    19     9   am
    82   151   152   ar
    83    94    95    1
    84   164   162    1
    85    10     9    2
    86   150   152   ar
    87   122   123    2
    88    12    13   ar
    89    12    11    1
    90   119   117    1
    91   106   107    1
    92   106   105    1
    93   113   114    1
    94   113   107   am
    95     9     8    1
    96   152   153    1
    97   114   117    1
    98   107   108    2
    99   117   118    1
   100    95    96    1
   101    95    98    1
   102    11     8    1
   103   162   163    1
   104   162   161    2
   105    97    96    2
   106     8     7    1
   107   101   103   ar
   108   101    99   ar
   109   161   160    1
   110    98    99    1
   111   103   104   ar
   112    99   100   ar
   113     7     3   am
   114     4     3    2
   115   104   102   ar
   116   157   156    2
   117   160   159    1
   118   180   181    1
   119   180   177    1
   120     3     2    1
   121   100   102   ar
   122   179   178    2
   123   158   159    1
   124   158   155    1
   125     5     6    1
   126     5     2    1
   127    45    44    2
   128   154   155    1
   129    46    44   am
   130   156   155    1
   131   156   165   am
   132   176   177    1
   133   176   167   am
   134    44    43    1
   135     2     1    1
   136   177   178    1
   137   175   174   ar
   138   175   173   ar
   139   174   172   ar
   140   173   171   ar
   141   166   165    1
   142   166   167    1
   143   166   169    1
   144   172   170   ar
   145   171   170   ar
   146   167   168    2
   147   170   169    1
   148    43    40    1
   149    57    56   ar
   150    57    55   ar
   151    56    54   ar
   152    55    53   ar
   153    42    41    2
   154    41    40    1
   155    40    39    1
   156    54    52   ar
   157    53    52   ar
   158    47    48    1
   159    52    51    1
   160    75    74    1
   161    62    59    1
   162    48    51    1
   163    48    49    1
   164    66    65    2
   165    59    58    1
   166    59    60    1
   167    74    71    1
   168    71    70    1
   169    71    72    1
   170    63    60   am
   171    63    64    1
   172    65    70   am
   173    65    64    1
   174    49    50    2
   175    60    61    2
   176    72    73    2
   177    64    67    1
   178    67    68    1
   179    67    69    1
