@<TRIPOS>MOLECULE
tmp/1i4fA02.pdb
 97 93 0 0 0
SMALL
GASTEIGER

@<TRIPOS>ATOM
      1  N         33.7010   -3.4150   27.2520 N.3    55  GLU55      -0.1231
      2  CA        34.5730   -2.3590   26.7810 C.3    55  GLU55       0.1699
      3  C         35.0210   -1.4790   27.9210 C.2    55  GLU55       0.2592
      4  O         34.1980   -1.1720   28.8360 O.2    55  GLU55      -0.2718
      5  CB        33.8410   -1.5100   25.7090 C.3    55  GLU55       0.0402
      6  CG        33.3820   -2.1900   24.4330 C.3    55  GLU55       0.1161
      7  CD        34.5020   -2.7710   23.6300 C.2    55  GLU55       0.3649
      8  OE1       35.7300   -2.3520   23.7630 O.co2  55  GLU55      -0.2457
      9  OE2       34.2390   -3.6300   22.7710 O.co2  55  GLU55      -0.2457
     10  N         36.2660   -1.0890   27.8550 N.am   56  GLY56      -0.1957
     11  CA        36.8570   -0.2720   28.9120 C.3    56  GLY56       0.1869
     12  C         36.6410    1.1830   28.7910 C.2    56  GLY56       0.2309
     13  O         35.9490    1.6590   27.9090 O.2    56  GLY56      -0.2863
     14  N         38.2710    3.7410   27.8890 N.3    58  GLU58      -0.1231
     15  CA        38.7130    4.4400   26.7170 C.3    58  GLU58       0.1699
     16  C         37.6240    4.3390   25.6200 C.2    58  GLU58       0.2592
     17  O         37.5030    5.2440   24.7750 O.2    58  GLU58      -0.2718
     18  CB        40.0590    3.8600   26.2490 C.3    58  GLU58       0.0402
     19  CG        40.0640    2.6100   25.3410 C.3    58  GLU58       0.1161
     20  CD        39.5790    1.3460   25.9360 C.2    58  GLU58       0.3649
     21  OE1       39.4280    1.2580   27.1480 O.co2  58  GLU58      -0.2457
     22  OE2       39.3840    0.4230   25.1180 O.co2  58  GLU58      -0.2457
     23  N         36.9170    3.2370   25.5680 N.am   59  TYR59      -0.1976
     24  CA        35.8130    3.0940   24.5870 C.3    59  TYR59       0.1639
     25  C         34.7310    4.1180   24.8870 C.2    59  TYR59       0.2290
     26  O         34.2990    4.8770   24.0240 O.2    59  TYR59      -0.2864
     27  CB        35.2110    1.6970   24.6640 C.3    59  TYR59       0.0560
     28  CG        34.0290    1.5090   23.7530 C.ar   59  TYR59      -0.0198
     29  CD1       34.2160    1.1640   22.4420 C.ar   59  TYR59      -0.0009
     30  CD2       32.7250    1.5900   24.2310 C.ar   59  TYR59      -0.0009
     31  CE1       33.1160    0.9410   21.5950 C.ar   59  TYR59       0.0417
     32  CE2       31.6490    1.4170   23.3990 C.ar   59  TYR59       0.0417
     33  CZ        31.8460    1.0970   22.0940 C.ar   59  TYR59       0.1957
     34  OH        30.7300    0.9050   21.2550 O.3    59  TYR59      -0.2866
     35  N         35.7690    7.7140   24.1450 N.3    62  GLY62      -0.1210
     36  CA        35.7980    8.0510   22.7430 C.3    62  GLY62       0.1956
     37  C         34.4230    8.1090   22.1230 C.2    62  GLY62       0.2611
     38  O         34.1710    9.0230   21.3480 O.2    62  GLY62      -0.2717
     39  N         33.5610    7.1850   22.5010 N.am   63  GLU63      -0.1979
     40  CA        32.2030    7.2120   21.9580 C.3    63  GLU63       0.1602
     41  C         31.4360    8.4470   22.4520 C.2    63  GLU63       0.2287
     42  O         30.6900    9.0460   21.6730 O.2    63  GLU63      -0.2864
     43  CB        31.4820    5.9590   22.2530 C.3    63  GLU63       0.0415
     44  CG        32.0590    4.7020   21.5980 C.3    63  GLU63       0.1163
     45  CD        32.0610    4.8190   20.1100 C.2    63  GLU63       0.3649
     46  OE1       30.9810    4.8730   19.5180 O.co2  63  GLU63      -0.2457
     47  OE2       33.1690    4.9440   19.5090 O.co2  63  GLU63      -0.2457
     48  N         32.7150   11.5120   20.4170 N.3    66  LYS66      -0.1245
     49  CA        32.2380   11.5330   19.0600 C.3    66  LYS66       0.1565
     50  C         30.7360   11.7710   19.0020 C.2    66  LYS66       0.2260
     51  O         30.2390   12.4980   18.1060 O.2    66  LYS66      -0.2867
     52  CB        32.5950   10.2290   18.3690 C.3    66  LYS66       0.0317
     53  CG        34.0960    9.9530   18.1550 C.3    66  LYS66       0.0294
     54  CD        34.3780    8.6040   17.5460 C.2    66  LYS66      -0.0067
     55  CE        33.9700    7.4010   18.2710 C.2    66  LYS66       0.1012
     56  NZ        34.0350    5.8350   17.3900 N.pl3  66  LYS66      -0.1270
     57  N         36.6340    0.9820    9.6170 N.3   163  THR163     -0.1218
     58  CA        36.3870    1.0170   11.0440 C.3   163  THR163      0.1862
     59  C         35.0080    0.4410   11.3780 C.2   163  THR163      0.2287
     60  O         34.8680   -0.2760   12.3590 O.2   163  THR163     -0.2866
     61  CB        36.5120    2.6010   11.6210 C.3   163  THR163      0.1770
     62  OG1       37.9090    3.0020   11.6080 O.3   163  THR163     -0.2211
     63  CG2       36.0830    2.6590   12.9310 C.3   163  THR163      0.0375
     64  N         35.1200   -3.2680   11.2540 N.3   166  GLU166     -0.1231
     65  CA        35.9710   -3.7860   12.3200 C.3   166  GLU166      0.1699
     66  C         35.2490   -3.7840   13.6370 C.2   166  GLU166      0.2592
     67  O         35.3320   -4.7870   14.4240 O.2   166  GLU166     -0.2718
     68  CB        37.2590   -2.9160   12.4220 C.3   166  GLU166      0.0402
     69  CG        38.1890   -3.0090   11.2640 C.3   166  GLU166      0.1161
     70  CD        39.4330   -2.1360   11.6310 C.2   166  GLU166      0.3649
     71  OE1       40.3080   -2.5680   12.4520 O.co2 166  GLU166     -0.2457
     72  OE2       39.5490   -1.0590   11.1370 O.co2 166  GLU166     -0.2457
     73  N         34.5020   -2.7210   13.9430 N.am  167  TRP167     -0.1976
     74  CA        33.7100   -2.7340   15.1700 C.3   167  TRP167      0.1640
     75  C         32.6770   -3.8570   15.1290 C.2   167  TRP167      0.2290
     76  O         32.4850   -4.5830   16.0740 O.2   167  TRP167     -0.2864
     77  CB        32.9970   -1.4140   15.4040 C.3   167  TRP167      0.0576
     78  CG        33.8790   -0.3120   15.8810 C.ar  167  TRP167      0.0006
     79  CD1       34.2060    0.8440   15.2320 C.ar  167  TRP167      0.0946
     80  CD2       34.5550   -0.3010   17.1070 C.ar  167  TRP167      0.0152
     81  NE1       35.0350    1.5920   16.0150 N.ar  167  TRP167     -0.2442
     82  CE2       35.2820    0.9300   17.1840 C.ar  167  TRP167      0.0810
     83  CE3       34.5850   -1.1720   18.2000 C.ar  167  TRP167      0.0012
     84  CZ2       36.0590    1.2590   18.2620 C.ar  167  TRP167      0.0191
     85  CZ3       35.3840   -0.8510   19.2630 C.ar  167  TRP167      0.0001
     86  CH2       36.1020    0.3930   19.2900 C.ar  167  TRP167      0.0015
     87  N         34.0960   -7.1860   15.8920 N.3   170  ARG170     -0.1245
     88  CA        34.4070   -7.2920   17.3340 C.3   170  ARG170      0.1563
     89  C         33.1480   -7.5600   18.1640 C.2   170  ARG170      0.2260
     90  O         33.1420   -8.4690   18.9930 O.2   170  ARG170     -0.2867
     91  CB        35.0480   -5.9800   17.7870 C.3   170  ARG170      0.0307
     92  CG        35.3640   -5.9320   19.2830 C.3   170  ARG170      0.0489
     93  CD        36.0130   -4.6760   19.6570 C.3   170  ARG170      0.2205
     94  NE        36.1940   -4.5380   21.1220 N.pl3 170  ARG170     -0.0865
     95  CZ        37.1130   -5.1740   21.8260 C.cat 170  ARG170      0.5346
     96  NH1       37.9610   -6.0500   21.2470 N.pl3 170  ARG170      0.1354
     97  NH2       37.2040   -4.9600   23.1420 N.pl3 170  ARG170      0.1354
@<TRIPOS>BOND
     1    57    58    1
     2    58    59    1
     3    58    61    1
     4    72    70   ar
     5    64    65    1
     6    69    70    1
     7    69    68    1
     8    59    60    2
     9    62    61    1
    10    61    63    1
    11    70    71   ar
    12    65    68    1
    13    65    66    1
    14    66    73   am
    15    66    67    2
    16    73    74    1
    17    75    74    1
    18    75    76    2
    19    74    77    1
    20    79    78   ar
    21    79    81   ar
    22    77    78    1
    23    78    80   ar
    24    87    88    1
    25    81    82   ar
    26    80    82   ar
    27    80    83   ar
    28    82    84   ar
    29    88    91    1
    30    88    89    1
    31    56    55    1
    32    54    53    1
    33    54    55    2
    34    91    92    1
    35    51    50    2
    36    53    52    1
    37    89    90    2
    38    83    85   ar
    39    84    86   ar
    40    52    49    1
    41    50    49    1
    42    49    48    1
    43    85    86   ar
    44    92    93    1
    45    47    45   ar
    46    46    45   ar
    47    93    94    1
    48    45    44    1
    49    94    95    2
    50    96    95    1
    51    34    33    1
    52    38    37    2
    53    31    33   ar
    54    31    29   ar
    55    44    43    1
    56    42    41    2
    57    95    97    1
    58    40    43    1
    59    40    41    1
    60    40    39    1
    61    33    32   ar
    62    37    39   am
    63    37    36    1
    64    29    28   ar
    65    36    35    1
    66     9     7   ar
    67    32    30   ar
    68     7     8   ar
    69     7     6    1
    70    28    30   ar
    71    28    27    1
    72    26    25    2
    73     6     5    1
    74    24    27    1
    75    24    25    1
    76    24    23    1
    77    17    16    2
    78    22    20   ar
    79    19    20    1
    80    19    18    1
    81    23    16   am
    82    16    15    1
    83     5     2    1
    84    20    21   ar
    85    18    15    1
    86    15    14    1
    87     2     1    1
    88     2     3    1
    89    10     3   am
    90    10    11    1
    91    13    12    2
    92     3     4    2
    93    12    11    1
