@<TRIPOS>MOLECULE
tmp/1i52A00.pdb
 148 143 0 0 0
SMALL
GASTEIGER

@<TRIPOS>ATOM
      1  N         43.8180  -13.5650   28.4880 N.3     9  PRO9       -0.2102
      2  CA        44.2010  -13.8660   29.8770 C.3     9  PRO9        0.1504
      3  C         45.0870  -12.7040   30.3510 C.2     9  PRO9        0.2576
      4  O         46.1260  -12.4030   29.7370 O.2     9  PRO9       -0.2718
      5  CB        44.9630  -15.1830   29.7650 C.3     9  PRO9        0.0282
      6  CG        45.4400  -15.2420   28.3600 C.3     9  PRO9        0.0208
      7  CD        44.3520  -14.5680   27.5490 C.3     9  PRO9        0.0893
      8  N         44.6580  -12.0360   31.4200 N.am   10  ALA10      -0.1966
      9  CA        45.3630  -10.8770   31.9460 C.3    10  ALA10       0.1728
     10  C         45.3120  -10.8890   33.4650 C.2    10  ALA10       0.2616
     11  O         45.1870   -9.8420   34.0990 O.2    10  ALA10      -0.2715
     12  CB        44.7050   -9.5990   31.4220 C.3    10  ALA10       0.0334
     13  N         45.4380  -12.0800   34.0320 N.am   11  ALA11      -0.1963
     14  CA        45.3480  -12.2680   35.4760 C.3    11  ALA11       0.1728
     15  C         46.6980  -12.5000   36.1400 C.2    11  ALA11       0.2617
     16  O         46.7670  -12.7300   37.3490 O.2    11  ALA11      -0.2715
     17  CB        44.4150  -13.4230   35.7690 C.3    11  ALA11       0.0334
     18  N         47.7690  -12.4080   35.3560 N.am   12  GLY12      -0.1940
     19  CA        49.1040  -12.5920   35.9000 C.3    12  GLY12       0.2014
     20  C         49.6020  -11.3370   36.5890 C.2    12  GLY12       0.2639
     21  O         48.9790  -10.2700   36.4990 O.2    12  GLY12      -0.2714
     22  N         50.7450  -11.4720   37.2630 N.am   13  PHE13      -0.1959
     23  CA        51.3720  -10.3850   38.0240 C.3    13  PHE13       0.1771
     24  C         52.6830   -9.8560   37.3920 C.2    13  PHE13       0.2620
     25  O         53.2520   -8.8680   37.8690 O.2    13  PHE13      -0.2715
     26  CB        51.6740  -10.8720   39.4640 C.3    13  PHE13       0.0574
     27  CG        50.4850  -11.4770   40.1900 C.ar   13  PHE13      -0.0200
     28  CD1       50.6850  -12.4330   41.1870 C.ar   13  PHE13      -0.0042
     29  CD2       49.1830  -11.0790   39.9070 C.ar   13  PHE13      -0.0042
     30  CE1       49.6120  -12.9850   41.8820 C.ar   13  PHE13      -0.0003
     31  CE2       48.0890  -11.6250   40.6000 C.ar   13  PHE13      -0.0003
     32  CZ        48.3060  -12.5760   41.5830 C.ar   13  PHE13      -0.0000
     33  N         53.1590  -10.5130   36.3340 N.am   14  GLY14      -0.1940
     34  CA        54.3860  -10.0740   35.6830 C.3    14  GLY14       0.2014
     35  C         55.5230   -9.8890   36.6710 C.2    14  GLY14       0.2639
     36  O         56.1380   -8.8120   36.7590 O.2    14  GLY14      -0.2714
     37  N         55.8040  -10.9490   37.4180 N.am   15  ARG15      -0.1963
     38  CA        56.8640  -10.9110   38.4260 C.3    15  ARG15       0.1729
     39  C         58.2430  -10.6650   37.7950 C.2    15  ARG15       0.2616
     40  O         59.1070  -10.0490   38.4100 O.2    15  ARG15      -0.2715
     41  CB        56.8650  -12.2220   39.2090 C.3    15  ARG15       0.0348
     42  CG        57.8970  -12.3140   40.3280 C.3    15  ARG15       0.0492
     43  CD        58.4640  -13.7330   40.3860 C.3    15  ARG15       0.2205
     44  NE        57.5340  -14.6600   39.7260 N.pl3  15  ARG15      -0.0865
     45  CZ        57.8030  -15.9270   39.4260 C.cat  15  ARG15       0.5346
     46  NH1       58.9850  -16.4710   39.7210 N.pl3  15  ARG15       0.1354
     47  NH2       56.8820  -16.6550   38.8210 N.pl3  15  ARG15       0.1354
     48  N         58.4450  -11.1420   36.5670 N.am   16  ARG16      -0.1977
     49  CA        59.7220  -10.9420   35.8840 C.3    16  ARG16       0.1597
     50  C         59.9830   -9.4990   35.4090 C.2    16  ARG16       0.2287
     51  O         61.0300   -9.2240   34.8030 O.2    16  ARG16      -0.2864
     52  CB        59.8430  -11.9060   34.7000 C.3    16  ARG16       0.0334
     53  CG        60.0010  -13.3750   35.1080 C.3    16  ARG16       0.0492
     54  CD        60.0020  -14.3020   33.8870 C.3    16  ARG16       0.2205
     55  NE        58.6500  -14.6870   33.4560 N.pl3  16  ARG16      -0.0865
     56  CZ        58.3860  -15.4200   32.3710 C.cat  16  ARG16       0.5346
     57  NH1       59.3750  -15.8500   31.5930 N.pl3  16  ARG16       0.1354
     58  NH2       57.1310  -15.7390   32.0670 N.pl3  16  ARG16       0.1354
     59  N         52.5840   -5.8100   34.6580 N.3    23  LYS23      -0.1231
     60  CA        53.0650   -5.3620   33.3580 C.3    23  LYS23       0.1693
     61  C         51.9860   -4.9890   32.3600 C.2    23  LYS23       0.2591
     62  O         52.1640   -4.0570   31.5670 O.2    23  LYS23      -0.2718
     63  CB        53.9790   -6.4200   32.7560 C.3    23  LYS23       0.0285
     64  CG        53.2800   -7.6950   32.3340 C.3    23  LYS23       0.0035
     65  CD        54.3170   -8.6940   31.8960 C.3    23  LYS23       0.0206
     66  CE        53.7090  -10.0250   31.5800 C.3    23  LYS23       0.1093
     67  NZ        54.7580  -10.9300   31.0260 N.3    23  LYS23      -0.1314
     68  N         50.8680   -5.7120   32.3830 N.am   24  GLN24      -0.1979
     69  CA        49.7980   -5.3850   31.4440 C.3    24  GLN24       0.1601
     70  C         49.2520   -3.9890   31.7190 C.2    24  GLN24       0.2287
     71  O         48.5360   -3.4300   30.8970 O.2    24  GLN24      -0.2864
     72  CB        48.6540   -6.4350   31.4900 C.3    24  GLN24       0.0394
     73  CG        47.9190   -6.5970   32.8240 C.3    24  GLN24       0.0908
     74  CD        48.5970   -7.6200   33.7040 C.2    24  GLN24       0.2608
     75  OE1       49.8160   -7.6450   33.7750 O.2    24  GLN24      -0.2717
     76  NE2       47.8200   -8.4660   34.3790 N.am   24  GLN24      -0.0878
     77  N         42.3650  -17.3670   36.9790 N.3    78  GLY78      -0.1210
     78  CA        42.7650  -18.3640   37.9690 C.3    78  GLY78       0.1956
     79  C         44.2450  -18.4220   38.3010 C.2    78  GLY78       0.2612
     80  O         44.9930  -17.5060   37.9730 O.2    78  GLY78      -0.2717
     81  N         44.6700  -19.5050   38.9560 N.am   79  ASP79      -0.1959
     82  CA        46.0690  -19.6730   39.3600 C.3    79  ASP79       0.1840
     83  C         47.0840  -19.6940   38.2160 C.2    79  ASP79       0.2622
     84  O         48.1510  -19.0750   38.3060 O.2    79  ASP79      -0.2715
     85  CB        46.2250  -20.9480   40.1990 C.3    79  ASP79       0.1450
     86  CG        45.1580  -21.0730   41.2640 C.2    79  ASP79       0.3671
     87  OD1       44.8540  -20.0510   41.9220 O.co2  79  ASP79      -0.2456
     88  OD2       44.6330  -22.1940   41.4540 O.co2  79  ASP79      -0.2456
     89  N         46.7550  -20.4250   37.1570 N.am   80  GLU80      -0.1963
     90  CA        47.6200  -20.5290   35.9890 C.3    80  GLU80       0.1733
     91  C         46.9100  -19.9860   34.7550 C.2    80  GLU80       0.2616
     92  O         45.6840  -19.8220   34.7450 O.2    80  GLU80      -0.2715
     93  CB        48.0280  -21.9810   35.7540 C.3    80  GLU80       0.0429
     94  CG        48.9250  -22.5220   36.8380 C.3    80  GLU80       0.1163
     95  CD        49.5320  -23.8360   36.4480 C.2    80  GLU80       0.3649
     96  OE1       50.1170  -23.9080   35.3400 O.co2  80  GLU80      -0.2457
     97  OE2       49.4340  -24.7940   37.2450 O.co2  80  GLU80      -0.2457
     98  N         47.6790  -19.7240   33.7080 N.am   81  ARG81      -0.1977
     99  CA        47.1110  -19.1710   32.4840 C.3    81  ARG81       0.1597
    100  C         45.9530  -20.0040   31.9290 C.2    81  ARG81       0.2287
    101  O         44.9260  -19.4680   31.5220 O.2    81  ARG81      -0.2864
    102  CB        48.2250  -19.0150   31.4390 C.3    81  ARG81       0.0334
    103  CG        47.7740  -18.3650   30.1370 C.3    81  ARG81       0.0492
    104  CD        48.9770  -17.9660   29.2990 C.3    81  ARG81       0.2205
    105  NE        48.5580  -17.4100   28.0190 N.pl3  81  ARG81      -0.0865
    106  CZ        47.9250  -18.1170   27.0930 C.cat  81  ARG81       0.5346
    107  NH1       47.6590  -19.3890   27.3110 N.pl3  81  ARG81       0.1354
    108  NH2       47.5440  -17.5490   25.9640 N.pl3  81  ARG81       0.1354
    109  N         42.7650  -19.3190   33.6110 N.3    84  SER84      -0.1217
    110  CA        42.2060  -18.0390   33.2210 C.3    84  SER84       0.1889
    111  C         41.5720  -18.1250   31.8370 C.2    84  SER84       0.2288
    112  O         40.5320  -17.5210   31.5900 O.2    84  SER84      -0.2866
    113  CB        43.2850  -16.9580   33.2670 C.3    84  SER84       0.2089
    114  OG        43.7850  -16.7950   34.5870 O.3    84  SER84      -0.2183
    115  N         47.4300  -13.1260   24.3530 N.3   102  ASP102     -0.1225
    116  CA        48.0900  -12.6610   25.5800 C.3   102  ASP102      0.1805
    117  C         47.9600  -11.1610   25.7870 C.2   102  ASP102      0.2598
    118  O         48.1750  -10.3910   24.8700 O.2   102  ASP102     -0.2718
    119  CB        49.5770  -12.9720   25.5590 C.3   102  ASP102      0.1424
    120  CG        49.8730  -14.4100   25.8620 C.2   102  ASP102      0.3668
    121  OD1       49.0100  -15.0970   26.4450 O.co2 102  ASP102     -0.2456
    122  OD2       50.9900  -14.8230   25.5210 O.co2 102  ASP102     -0.2456
    123  N         47.6070  -10.7350   26.9820 N.am  103  ALA103     -0.1966
    124  CA        47.5060   -9.3080   27.2420 C.3   103  ALA103      0.1728
    125  C         48.8920   -8.6570   27.0060 C.2   103  ALA103      0.2616
    126  O         48.9720   -7.4900   26.6260 O.2   103  ALA103     -0.2715
    127  CB        47.0620   -9.0650   28.6990 C.3   103  ALA103      0.0334
    128  N         49.9620   -9.4300   27.1820 N.am  104  ALA104     -0.1977
    129  CA        51.3170   -8.9180   27.0700 C.3   104  ALA104      0.1597
    130  C         51.9350   -8.8400   25.6850 C.2   104  ALA104      0.2287
    131  O         53.1660   -8.6470   25.5630 O.2   104  ALA104     -0.2864
    132  CB        52.2260   -9.7210   27.9940 C.3   104  ALA104      0.0319
    133  N         56.2950  -10.5450   23.3680 N.3   209  LYS209     -0.1245
    134  CA        55.6290  -10.5820   24.6550 C.3   209  LYS209      0.1561
    135  C         56.5240   -9.8230   25.6140 C.2   209  LYS209      0.2260
    136  O         57.7110  -10.1180   25.7390 O.2   209  LYS209     -0.2867
    137  CB        55.4590  -12.0120   25.1630 C.3   209  LYS209      0.0271
    138  CG        54.5200  -12.1200   26.3510 C.3   209  LYS209      0.0035
    139  CD        54.1310  -13.5630   26.6090 C.3   209  LYS209      0.0206
    140  CE        55.3640  -14.4290   26.7120 C.3   209  LYS209      0.1093
    141  NZ        54.9910  -15.8500   26.8950 N.3   209  LYS209     -0.1314
    142  N         58.0120   -9.2720   28.8010 N.3   211  THR211     -0.1218
    143  CA        58.2330  -10.1720   29.9270 C.3   211  THR211      0.1862
    144  C         59.2670   -9.6450   30.9060 C.2   211  THR211      0.2287
    145  O         59.1320   -9.8350   32.1180 O.2   211  THR211     -0.2866
    146  CB        58.7220  -11.5500   29.4260 C.3   211  THR211      0.1770
    147  OG1       57.8420  -12.0290   28.3910 O.3   211  THR211     -0.2211
    148  CG2       58.7390  -12.5570   30.5770 C.3   211  THR211      0.0375
@<TRIPOS>BOND
     1   133   134    1
     2   115   116    1
     3   134   137    1
     4   134   135    1
     5   118   117    2
     6   137   138    1
     7   122   120   ar
     8   119   116    1
     9   119   120    1
    10   131   130    2
    11   116   117    1
    12   135   136    2
    13   130   129    1
    14   117   123   am
    15   120   121   ar
    16   108   106    1
    17   138   139    1
    18   139   140    1
    19   126   125    2
    20   140   141    1
    21   123   124    1
    22   125   128   am
    23   125   124    1
    24   129   128    1
    25   129   132    1
    26   106   107    1
    27   106   105    2
    28   124   127    1
    29     7     6    1
    30     7     1    1
    31   105   104    1
    32     6     5    1
    33   147   146    1
    34     1     2    1
    35   142   143    1
    36   104   103    1
    37   146   143    1
    38   146   148    1
    39     4     3    2
    40     5     2    1
    41     2     3    1
    42   143   144    1
    43   103   102    1
    44     3     8   am
    45    71    70    2
    46   144   145    2
    47    67    66    1
    48     8     9    1
    49    12     9    1
    50   102    99    1
    51    69    72    1
    52    69    70    1
    53    69    68    1
    54    72    73    1
    55   101   100    2
    56    62    61    2
    57    66    65    1
    58   112   111    2
    59    57    56    1
    60   111   110    1
    61    65    64    1
    62   100    99    1
    63     9    10    1
    64    58    56    1
    65    64    63    1
    66    61    68   am
    67    61    60    1
    68    56    55    2
    69    99    98    1
    70    63    60    1
    71    73    74    1
    72   110   113    1
    73   110   109    1
    74   113   114    1
    75    60    59    1
    76    55    54    1
    77    10    13   am
    78    10    11    2
    79    74    75    2
    80    74    76   am
    81    98    91   am
    82    54    53    1
    83    13    14    1
    84    52    53    1
    85    52    49    1
    86    92    91    2
    87    91    90    1
    88    51    50    2
    89    96    95   ar
    90    18    19    1
    91    18    15   am
    92    50    49    1
    93    14    17    1
    94    14    15    1
    95    34    33    1
    96    34    35    1
    97    93    90    1
    98    93    94    1
    99    49    48    1
   100    19    20    1
   101    90    89    1
   102    15    16    2
   103    33    24   am
   104    95    94    1
   105    95    97   ar
   106    21    20    2
   107    48    39   am
   108    20    22   am
   109    35    36    2
   110    35    37   am
   111    77    78    1
   112    89    83   am
   113    22    23    1
   114    24    25    2
   115    24    23    1
   116    37    38    1
   117    39    40    2
   118    39    38    1
   119    78    79    1
   120    80    79    2
   121    23    26    1
   122    83    84    2
   123    83    82    1
   124    79    81   am
   125    38    41    1
   126    47    45    1
   127    81    82    1
   128    41    42    1
   129    82    85    1
   130    45    46    1
   131    45    44    2
   132    26    27    1
   133    44    43    1
   134    29    27   ar
   135    29    31   ar
   136    27    28   ar
   137    85    86    1
   138    42    43    1
   139    31    32   ar
   140    28    30   ar
   141    86    88   ar
   142    86    87   ar
   143    32    30   ar
