@<TRIPOS>MOLECULE
tmp/1i5aA00.pdb
 193 183 0 0 0
SMALL
GASTEIGER

@<TRIPOS>ATOM
      1  N         16.4870   20.9310   76.7250 N.3    54  HIS54      -0.1226
      2  CA        17.5730   21.2910   75.8290 C.3    54  HIS54       0.1752
      3  C         17.9610   22.7540   75.9560 C.2    54  HIS54       0.2595
      4  O         19.1400   23.1000   75.8880 O.2    54  HIS54      -0.2718
      5  CB        17.2170   21.0140   74.3780 C.3    54  HIS54       0.0759
      6  CG        18.4110   21.0350   73.4760 C.ar   54  HIS54       0.0818
      7  ND1       19.3200   20.0020   73.4340 N.ar   54  HIS54      -0.2268
      8  CD2       18.9010   22.0050   72.6700 C.ar   54  HIS54       0.1154
      9  CE1       20.3250   20.3360   72.6430 C.ar   54  HIS54       0.1986
     10  NE2       20.0940   21.5480   72.1680 N.ar   54  HIS54      -0.2212
     11  N         16.9720   23.6220   76.1180 N.am   55  LEU55      -0.1980
     12  CA        17.2710   25.0440   76.2620 C.3    55  LEU55       0.1596
     13  C         18.0060   25.2640   77.5830 C.2    55  LEU55       0.2287
     14  O         18.9420   26.0630   77.6580 O.2    55  LEU55      -0.2864
     15  CB        15.9850   25.8690   76.2200 C.3    55  LEU55       0.0297
     16  CG        15.1970   25.7890   74.9090 C.3    55  LEU55       0.0022
     17  CD1       14.0270   26.7620   74.9820 C.3    55  LEU55       0.0001
     18  CD2       16.0980   26.1200   73.7180 C.3    55  LEU55       0.0001
     19  N         19.8810   23.0430   79.1580 N.3    57  ARG57      -0.1231
     20  CA        21.2300   22.5230   78.9920 C.3    57  ARG57       0.1694
     21  C         22.0790   23.5230   78.2050 C.2    57  ARG57       0.2592
     22  O         23.2390   23.7660   78.5450 O.2    57  ARG57      -0.2718
     23  CB        21.1930   21.1680   78.2750 C.3    57  ARG57       0.0321
     24  CG        22.5560   20.5040   78.1030 C.3    57  ARG57       0.0489
     25  CD        22.3940   19.0690   77.6180 C.3    57  ARG57       0.2205
     26  NE        21.7190   19.0060   76.3230 N.pl3  57  ARG57      -0.0865
     27  CZ        21.1130   17.9210   75.8490 C.cat  57  ARG57       0.5346
     28  NH1       21.0920   16.8030   76.5650 N.pl3  57  ARG57       0.1354
     29  NH2       20.5240   17.9540   74.6590 N.pl3  57  ARG57       0.1354
     30  N         21.5050   24.1100   77.1560 N.am   58  ASN58      -0.1960
     31  CA        22.2460   25.0900   76.3690 C.3    58  ASN58       0.1819
     32  C         22.7220   26.2170   77.2710 C.2    58  ASN58       0.2621
     33  O         23.8730   26.6400   77.1990 O.2    58  ASN58      -0.2715
     34  CB        21.3790   25.6990   75.2680 C.3    58  ASN58       0.1195
     35  CG        21.4130   24.9040   73.9950 C.2    58  ASN58       0.2630
     36  OD1       22.2400   23.9990   73.8300 O.2    58  ASN58      -0.2716
     37  ND2       20.5240   25.2460   73.0690 N.am   58  ASN58      -0.0877
     38  N         21.8190   26.7100   78.1120 N.am   59  ALA59      -0.1977
     39  CA        22.1440   27.8000   79.0140 C.3    59  ALA59       0.1597
     40  C         23.2780   27.4360   79.9690 C.2    59  ALA59       0.2287
     41  O         24.1800   28.2380   80.2050 O.2    59  ALA59      -0.2864
     42  CB        20.9080   28.1990   79.8010 C.3    59  ALA59       0.0319
     43  N         26.6670   26.5380   77.1500 N.3    62  HIS62      -0.1226
     44  CA        27.1150   27.6990   76.3760 C.3    62  HIS62       0.1752
     45  C         26.8830   29.0480   77.0380 C.2    62  HIS62       0.2596
     46  O         27.5420   30.0350   76.7030 O.2    62  HIS62      -0.2718
     47  CB        26.3990   27.7260   75.0260 C.3    62  HIS62       0.0759
     48  CG        26.3880   26.4090   74.3150 C.ar   62  HIS62       0.0818
     49  ND1       27.5400   25.7720   73.9130 N.ar   62  HIS62      -0.2268
     50  CD2       25.3610   25.6310   73.9030 C.ar   62  HIS62       0.1154
     51  CE1       27.2240   24.6560   73.2790 C.ar   62  HIS62       0.1986
     52  NE2       25.9060   24.5470   73.2590 N.ar   62  HIS62      -0.2212
     53  N         25.9360   29.1010   77.9610 N.am   63  GLY63      -0.1957
     54  CA        25.6260   30.3670   78.5950 C.3    63  GLY63       0.1869
     55  C         26.4300   30.7130   79.8270 C.2    63  GLY63       0.2309
     56  O         27.3800   31.5000   79.7610 O.2    63  GLY63      -0.2863
     57  N         19.1480   33.1620   80.9380 N.3    98  ASP98      -0.1239
     58  CA        20.3770   33.0180   81.7150 C.3    98  ASP98       0.1674
     59  C         21.1350   34.3390   81.6630 C.2    98  ASP98       0.2266
     60  O         20.9140   35.1440   80.7540 O.2    98  ASP98      -0.2867
     61  CB        21.2360   31.8710   81.1580 C.3    98  ASP98       0.1410
     62  CG        21.8300   32.1780   79.7860 C.2    98  ASP98       0.3668
     63  OD1       22.7640   33.0090   79.6990 O.co2  98  ASP98      -0.2456
     64  OD2       21.3660   31.5830   78.7940 O.co2  98  ASP98      -0.2456
     65  N         27.3470   34.4980   79.1620 N.3   101  ARG101     -0.1231
     66  CA        28.1850   35.2440   78.2330 C.3   101  ARG101      0.1694
     67  C         27.4300   35.7100   77.0020 C.2   101  ARG101      0.2593
     68  O         27.9050   36.5780   76.2650 O.2   101  ARG101     -0.2718
     69  CB        29.3900   34.3920   77.8080 C.3   101  ARG101      0.0321
     70  CG        29.0280   33.0440   77.1870 C.3   101  ARG101      0.0489
     71  CD        30.2620   32.3080   76.6630 C.3   101  ARG101      0.2205
     72  NE        31.1880   31.8920   77.7170 N.pl3 101  ARG101     -0.0865
     73  CZ        31.1100   30.7420   78.3800 C.cat 101  ARG101      0.5346
     74  NH1       30.1410   29.8730   78.1010 N.pl3 101  ARG101      0.1354
     75  NH2       32.0010   30.4580   79.3220 N.pl3 101  ARG101      0.1354
     76  N         26.2580   35.1280   76.7830 N.am  102  GLY102     -0.1942
     77  CA        25.4450   35.4930   75.6370 C.3   102  GLY102      0.2014
     78  C         25.8670   34.7780   74.3690 C.2   102  GLY102      0.2639
     79  O         26.9970   34.3110   74.2550 O.2   102  GLY102     -0.2714
     80  N         24.9510   34.6780   73.4140 N.am  103  ILE103     -0.1963
     81  CA        25.2510   34.0310   72.1450 C.3   103  ILE103      0.1727
     82  C         26.3290   34.8300   71.4050 C.2   103  ILE103      0.2616
     83  O         26.2280   36.0500   71.2610 O.2   103  ILE103     -0.2715
     84  CB        23.9780   33.9410   71.2630 C.3   103  ILE103      0.0290
     85  CG1       22.9820   32.9590   71.8940 C.3   103  ILE103      0.0022
     86  CG2       24.3490   33.5060   69.8460 C.3   103  ILE103      0.0023
     87  CD1       21.5560   33.0730   71.3520 C.3   103  ILE103      0.0001
     88  N         27.3630   34.1310   70.9470 N.am  104  ASP104     -0.1971
     89  CA        28.4520   34.7550   70.2110 C.3   104  ASP104      0.1709
     90  C         27.9670   35.0160   68.7800 C.2   104  ASP104      0.2293
     91  O         28.0140   34.1310   67.9250 O.2   104  ASP104     -0.2864
     92  CB        29.6660   33.8180   70.2240 C.3   104  ASP104      0.1436
     93  CG        30.8670   34.3960   69.5050 C.2   104  ASP104      0.3671
     94  OD1       31.9790   33.8480   69.6900 O.co2 104  ASP104     -0.2456
     95  OD2       30.7070   35.3800   68.7510 O.co2 104  ASP104     -0.2456
     96  N         30.5480   34.6340   65.8410 N.3   107  LYS107     -0.1245
     97  CA        30.7760   33.2360   65.5020 C.3   107  LYS107      0.1561
     98  C         29.7570   32.7710   64.4600 C.2   107  LYS107      0.2260
     99  O         30.0910   32.0360   63.5360 O.2   107  LYS107     -0.2867
    100  CB        30.6740   32.3620   66.7580 C.3   107  LYS107      0.0271
    101  CG        30.9480   30.8870   66.5000 C.3   107  LYS107      0.0035
    102  CD        30.9620   30.0850   67.8000 C.3   107  LYS107      0.0206
    103  CE        31.4110   28.6560   67.5360 C.3   107  LYS107      0.1093
    104  NZ        31.4890   27.8380   68.7840 N.3   107  LYS107     -0.1314
    105  N         30.4590   31.6450   60.5450 N.3   111  LYS111     -0.1245
    106  CA        29.9700   30.3640   60.0450 C.3   111  LYS111      0.1561
    107  C         29.1060   30.5370   58.7940 C.2   111  LYS111      0.2260
    108  O         29.1740   29.7230   57.8710 O.2   111  LYS111     -0.2867
    109  CB        29.1700   29.6360   61.1280 C.3   111  LYS111      0.0271
    110  CG        30.0360   28.9870   62.1940 C.3   111  LYS111      0.0035
    111  CD        29.1880   28.2820   63.2300 C.3   111  LYS111      0.0206
    112  CE        30.0430   27.4110   64.1320 C.3   111  LYS111      0.1093
    113  NZ        29.2390   26.7890   65.2230 N.3   111  LYS111     -0.1314
    114  N         20.5660   30.2840   63.7680 N.3   135  LEU135     -0.1245
    115  CA        20.5780   29.1670   64.7070 C.3   135  LEU135      0.1561
    116  C         19.3950   28.2210   64.5080 C.2   135  LEU135      0.2260
    117  O         19.4100   27.0850   64.9880 O.2   135  LEU135     -0.2867
    118  CB        20.5880   29.7000   66.1430 C.3   135  LEU135      0.0270
    119  CG        21.8970   29.6330   66.9470 C.3   135  LEU135      0.0019
    120  CD1       23.1150   29.7440   66.0390 C.3   135  LEU135      0.0001
    121  CD2       21.8920   30.7370   68.0000 C.3   135  LEU135      0.0001
    122  N         24.1970   24.5180   62.7180 N.3   141  SER141     -0.1202
    123  CA        25.0970   24.2240   63.8280 C.3   141  SER141      0.2020
    124  C         25.6000   22.7840   63.8030 C.2   141  SER141      0.2619
    125  O         24.8390   21.8560   63.5400 O.2   141  SER141     -0.2717
    126  CB        24.3910   24.4990   65.1590 C.3   141  SER141      0.2103
    127  OG        24.0040   25.8590   65.2520 O.3   141  SER141     -0.2182
    128  N         26.8870   22.6070   64.0870 N.am  142  THR142     -0.1938
    129  CA        27.4990   21.2820   64.0980 C.3   142  THR142      0.2028
    130  C         26.9220   20.4180   65.2190 C.2   142  THR142      0.2642
    131  O         26.6090   20.9150   66.3020 O.2   142  THR142     -0.2714
    132  CB        29.0290   21.3760   64.2820 C.3   142  THR142      0.1808
    133  OG1       29.3230   21.9540   65.5580 O.3   142  THR142     -0.2208
    134  CG2       29.6480   22.2430   63.1890 C.3   142  THR142      0.0379
    135  N         26.7850   19.1220   64.9490 N.am  143  LYS143     -0.1963
    136  CA        26.2400   18.1800   65.9220 C.3   143  LYS143      0.1728
    137  C         27.2570   17.1120   66.3340 C.2   143  LYS143      0.2616
    138  O         28.4670   17.3270   66.2530 O.2   143  LYS143     -0.2715
    139  CB        24.9830   17.5190   65.3520 C.3   143  LYS143      0.0311
    140  CG        23.8650   18.4960   65.0060 C.3   143  LYS143      0.0038
    141  CD        22.5770   17.7690   64.5660 C.3   143  LYS143      0.0206
    142  CE        21.4890   18.7220   64.0650 C.3   143  LYS143      0.1093
    143  NZ        21.9440   20.1010   63.9360 N.3   143  LYS143     -0.1314
    144  N         26.7520   15.9610   66.7680 N.am  144  GLU144     -0.1977
    145  CA        27.5970   14.8550   67.2170 C.3   144  GLU144      0.1602
    146  C         27.7500   13.7480   66.1790 C.2   144  GLU144      0.2287
    147  O         28.4640   12.7710   66.5030 O.2   144  GLU144     -0.2864
    148  CB        27.0370   14.2760   68.5080 C.3   144  GLU144      0.0415
    149  CG        27.0020   15.3140   69.6170 C.3   144  GLU144      0.1163
    150  CD        25.6200   15.9310   69.7280 C.2   144  GLU144      0.3649
    151  OE1       24.7200   15.6180   68.9170 O.co2 144  GLU144     -0.2457
    152  OE2       25.4280   16.7370   70.6620 O.co2 144  GLU144     -0.2457
    153  N         18.9070   16.3610   68.3200 N.3   146  VAL146     -0.1231
    154  CA        19.0690   17.6030   69.0780 C.3   146  VAL146      0.1692
    155  C         19.6260   18.8950   68.4680 C.2   146  VAL146      0.2593
    156  O         20.3370   18.8890   67.4590 O.2   146  VAL146     -0.2718
    157  CB        19.8510   17.3130   70.3550 C.3   146  VAL146      0.0266
    158  CG1       19.1580   16.1850   71.1180 C.3   146  VAL146      0.0020
    159  CG2       21.2810   16.9310   70.0220 C.3   146  VAL146      0.0020
    160  N         19.2860   20.0050   69.1300 N.am  147  GLY147     -0.1942
    161  CA        19.7000   21.3330   68.7070 C.3   147  GLY147      0.2014
    162  C         18.5470   22.3310   68.6410 C.2   147  GLY147      0.2639
    163  O         17.3890   21.9890   68.9000 O.2   147  GLY147     -0.2714
    164  N         18.8660   23.5780   68.3030 N.am  148  MET148     -0.1963
    165  CA        17.8570   24.6320   68.1880 C.3   148  MET148      0.1736
    166  C         16.8090   24.2240   67.1690 C.2   148  MET148      0.2616
    167  O         15.6460   24.6120   67.2660 O.2   148  MET148     -0.2715
    168  CB        18.4940   25.9370   67.7220 C.3   148  MET148      0.0427
    169  CG        18.2030   27.1020   68.6180 C.3   148  MET148      0.0599
    170  SD        19.1000   26.9020   70.1440 S.3   148  MET148     -0.1393
    171  CE        20.5530   27.8310   69.7480 C.3   148  MET148      0.0692
    172  N         17.2420   23.4500   66.1790 N.am  149  ASP149     -0.1971
    173  CA        16.3650   22.9700   65.1180 C.3   149  ASP149      0.1709
    174  C         15.2170   22.1710   65.6810 C.2   149  ASP149      0.2293
    175  O         14.0480   22.4910   65.4660 O.2   149  ASP149     -0.2864
    176  CB        17.1390   22.0760   64.1540 C.3   149  ASP149      0.1436
    177  CG        18.2600   22.8020   63.4740 C.2   149  ASP149      0.3671
    178  OD1       19.0040   22.1590   62.7010 O.co2 149  ASP149     -0.2456
    179  OD2       18.3900   24.0210   63.7150 O.co2 149  ASP149     -0.2456
    180  N         21.1970   35.3300   77.6880 N.3   172  THR172     -0.1218
    181  CA        20.3410   34.9270   76.5840 C.3   172  THR172      0.1862
    182  C         18.9440   34.5740   77.0590 C.2   172  THR172      0.2287
    183  O         18.7790   34.0220   78.1390 O.2   172  THR172     -0.2866
    184  CB        20.9650   33.7180   75.8730 C.3   172  THR172      0.1770
    185  OG1       22.2270   34.1120   75.3180 O.3   172  THR172     -0.2211
    186  CG2       20.0450   33.1910   74.7620 C.3   172  THR172      0.0375
    187  N         15.3360   32.7590   75.6190 N.3   174  VAL174     -0.1245
    188  CA        14.6040   32.0360   74.5910 C.3   174  VAL174      0.1561
    189  C         13.1440   32.0910   75.0170 C.2   174  VAL174      0.2260
    190  O         12.8170   31.8010   76.1660 O.2   174  VAL174     -0.2867
    191  CB        15.0780   30.5710   74.4990 C.3   174  VAL174      0.0252
    192  CG1       14.3140   29.8370   73.4220 C.3   174  VAL174      0.0019
    193  CG2       16.5670   30.5360   74.1750 C.3   174  VAL174      0.0019
@<TRIPOS>BOND
     1   108   107    2
     2   107   106    1
     3   106   105    1
     4   106   109    1
     5   109   110    1
     6   110   111    1
     7   178   177   ar
     8   122   123    1
     9   134   132    1
    10   111   112    1
    11   177   179   ar
    12   177   176    1
    13    99    98    2
    14   125   124    2
    15   114   115    1
    16   124   123    1
    17   124   128   am
    18   123   126    1
    19   143   142    1
    20   142   141    1
    21   128   129    1
    22   129   132    1
    23   129   130    1
    24   112   113    1
    25   176   173    1
    26   132   133    1
    27    98    97    1
    28   116   115    1
    29   116   117    2
    30   141   140    1
    31   115   118    1
    32   135   130   am
    33   135   136    1
    34   140   139    1
    35   173   174    1
    36   173   172    1
    37   126   127    1
    38   130   131    2
    39   139   136    1
    40   175   174    2
    41    97    96    1
    42    97   100    1
    43   136   137    1
    44   120   119    1
    45   118   119    1
    46   146   147    2
    47   146   145    1
    48   172   166   am
    49   138   137    2
    50   137   144   am
    51   101   100    1
    52   101   102    1
    53   144   145    1
    54   119   121    1
    55   166   167    2
    56   166   165    1
    57   145   148    1
    58   156   155    2
    59   103   102    1
    60   103   104    1
    61   168   165    1
    62   168   169    1
    63    91    90    2
    64   165   164    1
    65   164   162   am
    66   153   154    1
    67   155   154    1
    68   155   160   am
    69   148   149    1
    70   169   170    1
    71   162   161    1
    72   162   163    2
    73   161   160    1
    74    95    93   ar
    75    90    89    1
    76   151   150   ar
    77   154   157    1
    78    93    94   ar
    79    93    92    1
    80   149   150    1
    81   150   152   ar
    82   171   170    1
    83    86    84    1
    84   159   157    1
    85    89    92    1
    86    89    88    1
    87   157   158    1
    88    88    82   am
    89    83    82    2
    90    84    85    1
    91    84    81    1
    92    87    85    1
    93    82    81    1
    94    81    80    1
    95    10     9   ar
    96    10     8   ar
    97     9     7   ar
    98     8     6   ar
    99    37    35   am
   100    52    51   ar
   101    52    50   ar
   102    51    49   ar
   103    80    78   am
   104   192   191    1
   105     7     6   ar
   106     6     5    1
   107    18    16    1
   108    36    35    2
   109    50    48   ar
   110    49    48   ar
   111    35    34    1
   112   193   191    1
   113    79    78    2
   114    48    47    1
   115    78    77    1
   116     5     2    1
   117   191   188    1
   118   188   189    1
   119   188   187    1
   120    29    27    1
   121   186   184    1
   122    16    17    1
   123    16    15    1
   124   189   190    2
   125    47    44    1
   126    34    31    1
   127   185   184    1
   128    77    76    1
   129     2     3    1
   130     2     1    1
   131    27    26    2
   132    27    28    1
   133   184   181    1
   134     4     3    2
   135     3    11   am
   136    11    12    1
   137    15    12    1
   138    12    13    1
   139    68    67    2
   140    26    25    1
   141    31    30    1
   142    31    32    1
   143    44    45    1
   144    44    43    1
   145   181   182    1
   146   181   180    1
   147    71    70    1
   148    71    72    1
   149    46    45    2
   150    76    67   am
   151    67    66    1
   152    45    53   am
   153   182   183    2
   154    30    21   am
   155    70    69    1
   156    33    32    2
   157    32    38   am
   158    13    14    2
   159    25    24    1
   160    72    73    2
   161    69    66    1
   162    53    54    1
   163    74    73    1
   164    24    23    1
   165    38    39    1
   166    21    22    2
   167    21    20    1
   168    66    65    1
   169    23    20    1
   170    73    75    1
   171    54    55    1
   172    64    62   ar
   173    20    19    1
   174    39    42    1
   175    39    40    1
   176    63    62   ar
   177    56    55    2
   178    62    61    1
   179    40    41    2
   180    60    59    2
   181    57    58    1
   182    61    58    1
   183    59    58    1
