@<TRIPOS>MOLECULE
tmp/1i5cA00.pdb
 192 182 0 0 0
SMALL
GASTEIGER

@<TRIPOS>ATOM
      1  N         12.4800    1.7520    4.5700 N.3    53  HIS53      -0.1226
      2  CA        11.3720    0.9100    4.9870 C.3    53  HIS53       0.1752
      3  C         11.1920    0.9210    6.4970 C.2    53  HIS53       0.2595
      4  O         10.0650    0.9740    6.9920 O.2    53  HIS53      -0.2718
      5  CB        11.5570   -0.5340    4.5280 C.3    53  HIS53       0.0759
      6  CG        10.3640   -1.3850    4.8100 C.ar   53  HIS53       0.0818
      7  ND1        9.1440   -1.1700    4.2050 N.ar   53  HIS53      -0.2268
      8  CD2       10.1640   -2.3770    5.7120 C.ar   53  HIS53       0.1154
      9  CE1        8.2460   -1.9870    4.7260 C.ar   53  HIS53       0.1986
     10  NE2        8.8380   -2.7250    5.6410 N.ar   53  HIS53      -0.2212
     11  N         12.2980    0.8580    7.2310 N.am   54  LEU54      -0.1980
     12  CA        12.2310    0.8590    8.6900 C.3    54  LEU54       0.1596
     13  C         11.6590    2.1800    9.2010 C.2    54  LEU54       0.2287
     14  O         10.9240    2.2040   10.1870 O.2    54  LEU54      -0.2864
     15  CB        13.6220    0.6300    9.2940 C.3    54  LEU54       0.0297
     16  CG        14.2570   -0.7320    8.9830 C.3    54  LEU54       0.0022
     17  CD1       15.6760   -0.7490    9.5250 C.3    54  LEU54       0.0001
     18  CD2       13.4220   -1.8600    9.6010 C.3    54  LEU54       0.0001
     19  N          7.9400    2.1720    8.5830 N.3    57  ASN57      -0.1225
     20  CA         7.3040    1.3250    9.5900 C.3    57  ASN57       0.1785
     21  C          7.0830    2.0780   10.8980 C.2    57  ASN57       0.2597
     22  O          6.0250    1.9640   11.5320 O.2    57  ASN57      -0.2718
     23  CB         8.1580    0.0810    9.8770 C.3    57  ASN57       0.1169
     24  CG         7.9220   -1.0430    8.8780 C.2    57  ASN57       0.2627
     25  OD1        7.0320   -0.9650    8.0260 O.2    57  ASN57      -0.2716
     26  ND2        8.7180   -2.1000    8.9880 N.am   57  ASN57      -0.0877
     27  N          8.0890    2.8400   11.3070 N.am   58  ALA58      -0.1979
     28  CA         7.9980    3.6000   12.5480 C.3    58  ALA58       0.1597
     29  C          6.8500    4.6070   12.4990 C.2    58  ALA58       0.2287
     30  O          6.0450    4.6930   13.4250 O.2    58  ALA58      -0.2864
     31  CB         9.3360    4.3260   12.8170 C.3    58  ALA58       0.0319
     32  N          3.2750    2.1640   11.5380 N.3    61  HIS61      -0.1226
     33  CA         2.8960    1.2000   12.5700 C.3    61  HIS61       0.1752
     34  C          3.2900    1.5570   14.0050 C.2    61  HIS61       0.2596
     35  O          2.6500    1.0920   14.9560 O.2    61  HIS61      -0.2718
     36  CB         3.4960   -0.1730   12.2440 C.3    61  HIS61       0.0759
     37  CG         3.1970   -0.6610   10.8580 C.ar   61  HIS61       0.0818
     38  ND1        1.9140   -0.8100   10.3780 N.ar   61  HIS61      -0.2268
     39  CD2        4.0190   -1.0740    9.8640 C.ar   61  HIS61       0.1154
     40  CE1        1.9580   -1.2960    9.1480 C.ar   61  HIS61       0.1986
     41  NE2        3.2250   -1.4650    8.8150 N.ar   61  HIS61      -0.2212
     42  N          4.3420    2.3570   14.1610 N.am   62  GLY62      -0.1957
     43  CA         4.8110    2.7230   15.4900 C.3    62  GLY62       0.1869
     44  C          4.1540    3.9230   16.1510 C.2    62  GLY62       0.2309
     45  O          3.2730    3.7620   16.9970 O.2    62  GLY62      -0.2863
     46  N         11.9240    4.2870   17.6590 N.3    97  ASP97      -0.1239
     47  CA        10.7370    5.1150   17.8450 C.3    97  ASP97       0.1674
     48  C         10.1610    4.8610   19.2380 C.2    97  ASP97       0.2266
     49  O         10.4290    3.8220   19.8300 O.2    97  ASP97      -0.2867
     50  CB         9.6680    4.8210   16.7690 C.3    97  ASP97       0.1410
     51  CG         9.0080    3.4410   16.9190 C.2    97  ASP97       0.3668
     52  OD1        9.3680    2.5120   16.1640 O.co2  97  ASP97      -0.2456
     53  OD2        8.1140    3.2840   17.7820 O.co2  97  ASP97      -0.2456
     54  N          3.8960    2.5530   19.7450 N.3   100  ARG100     -0.1231
     55  CA         3.1120    1.5110   20.4030 C.3   100  ARG100      0.1694
     56  C          3.7990    0.1650   20.5670 C.2   100  ARG100      0.2593
     57  O          3.3550   -0.6580   21.3650 O.2   100  ARG100     -0.2718
     58  CB         1.7700    1.3140   19.6820 C.3   100  ARG100      0.0321
     59  CG         1.8660    0.8700   18.2220 C.3   100  ARG100      0.0489
     60  CD         0.4800    0.4940   17.6730 C.3   100  ARG100      0.2205
     61  NE        -0.4620    1.6180   17.6730 N.pl3 100  ARG100     -0.0865
     62  CZ        -0.6360    2.4510   16.6520 C.cat 100  ARG100      0.5346
     63  NH1        0.0680    2.2890   15.5380 N.pl3 100  ARG100      0.1354
     64  NH2       -1.5110    3.4470   16.7450 N.pl3 100  ARG100      0.1354
     65  N          4.8770   -0.0560   19.8220 N.am  101  GLY101     -0.1942
     66  CA         5.5900   -1.3140   19.9250 C.3   101  GLY101      0.2014
     67  C          5.0070   -2.3400   18.9730 C.2   101  GLY101      0.2639
     68  O          3.8670   -2.2090   18.5450 O.2   101  GLY101     -0.2714
     69  N          5.7870   -3.3590   18.6310 N.am  102  ILE102     -0.1963
     70  CA         5.3020   -4.3860   17.7230 C.3   102  ILE102      0.1727
     71  C          4.2240   -5.2190   18.4100 C.2   102  ILE102      0.2616
     72  O          4.3550   -5.5870   19.5770 O.2   102  ILE102     -0.2715
     73  CB         6.4580   -5.2930   17.2540 C.3   102  ILE102      0.0290
     74  CG1        7.4700   -4.4440   16.4740 C.3   102  ILE102      0.0022
     75  CG2        5.9260   -6.4190   16.3730 C.3   102  ILE102      0.0023
     76  CD1        8.7390   -5.1570   16.1020 C.3   102  ILE102      0.0001
     77  N          3.1480   -5.4920   17.6840 N.am  103  ASP103     -0.1971
     78  CA         2.0430   -6.2780   18.2220 C.3   103  ASP103      0.1709
     79  C          2.3970   -7.7510   18.0550 C.2   103  ASP103      0.2293
     80  O          2.1960   -8.3320   16.9910 O.2   103  ASP103     -0.2864
     81  CB         0.7580   -5.9340   17.4670 C.3   103  ASP103      0.1436
     82  CG        -0.4550   -6.6780   17.9980 C.2   103  ASP103      0.3671
     83  OD1       -1.5780   -6.4010   17.5220 O.co2 103  ASP103     -0.2456
     84  OD2       -0.2910   -7.5420   18.8790 O.co2 103  ASP103     -0.2456
     85  N         -0.4350  -10.2460   17.0540 N.3   106  LYS106     -0.1231
     86  CA        -0.6730  -10.2970   15.6230 C.3   106  LYS106      0.1693
     87  C          0.4060  -11.0910   14.8780 C.2   106  LYS106      0.2591
     88  O          0.1060  -11.8190   13.9290 O.2   106  LYS106     -0.2718
     89  CB        -0.7620   -8.8750   15.0630 C.3   106  LYS106      0.0285
     90  CG        -1.0080   -8.8200   13.5660 C.3   106  LYS106      0.0035
     91  CD        -1.2410   -7.3920   13.0980 C.3   106  LYS106      0.0206
     92  CE        -1.4640   -7.3490   11.5970 C.3   106  LYS106      0.1093
     93  NZ        -1.6250   -5.9580   11.0970 N.3   106  LYS106     -0.1314
     94  N          1.6610  -10.9610   15.2940 N.am  107  ILE107     -0.1980
     95  CA         2.7220  -11.7040   14.6190 C.3   107  ILE107      0.1595
     96  C          2.4690  -13.2060   14.7560 C.2   107  ILE107      0.2287
     97  O          2.5810  -13.9560   13.7860 O.2   107  ILE107     -0.2864
     98  CB         4.1080  -11.3570   15.1910 C.3   107  ILE107      0.0276
     99  CG1        4.4590   -9.9150   14.8440 C.3   107  ILE107      0.0022
    100  CG2        5.1610  -12.2980   14.6240 C.3   107  ILE107      0.0022
    101  CD1        5.7730   -9.4850   15.4340 C.3   107  ILE107      0.0001
    102  N         -0.1430  -14.3260   12.4800 N.3   110  LYS110     -0.1245
    103  CA         0.3800  -14.3900   11.1190 C.3   110  LYS110      0.1561
    104  C          1.2580  -15.6210   10.9320 C.2   110  LYS110      0.2260
    105  O          1.1820  -16.3030    9.9080 O.2   110  LYS110     -0.2867
    106  CB         1.1960  -13.1330   10.7950 C.3   110  LYS110      0.0271
    107  CG         0.3720  -11.8610   10.5960 C.3   110  LYS110      0.0035
    108  CD         1.2870  -10.6940   10.2120 C.3   110  LYS110      0.0206
    109  CE         0.5010   -9.4300    9.8840 C.3   110  LYS110      0.1093
    110  NZ         1.3990   -8.3010    9.4730 N.3   110  LYS110     -0.1314
    111  N          9.5830  -12.0020   11.9170 N.3   134  LEU134     -0.1245
    112  CA         9.6120  -10.9120   10.9440 C.3   134  LEU134      0.1561
    113  C         10.7530  -11.0580    9.9500 C.2   134  LEU134      0.2260
    114  O         10.7520  -10.4130    8.9030 O.2   134  LEU134     -0.2867
    115  CB         9.7390   -9.5570   11.6510 C.3   134  LEU134      0.0270
    116  CG         8.4920   -9.0130   12.3510 C.3   134  LEU134      0.0019
    117  CD1        8.0680   -9.9790   13.4240 C.3   134  LEU134      0.0001
    118  CD2        8.7820   -7.6440   12.9430 C.3   134  LEU134      0.0001
    119  N          7.3060  -13.4480    4.9380 N.3   139  PHE139     -0.1227
    120  CA         6.4580  -13.0620    6.0620 C.3   139  PHE139      0.1736
    121  C          5.7720  -11.7180    5.8500 C.2   139  PHE139      0.2596
    122  O          4.6320  -11.5270    6.2690 O.2   139  PHE139     -0.2718
    123  CB         7.2670  -12.9970    7.3660 C.3   139  PHE139      0.0547
    124  CG         6.4340  -12.7000    8.5840 C.ar  139  PHE139     -0.0202
    125  CD1        5.7420  -13.7160    9.2300 C.ar  139  PHE139     -0.0042
    126  CD2        6.3070  -11.3980    9.0570 C.ar  139  PHE139     -0.0042
    127  CE1        4.9300  -13.4410   10.3370 C.ar  139  PHE139     -0.0003
    128  CE2        5.4980  -11.1120   10.1590 C.ar  139  PHE139     -0.0003
    129  CZ         4.8070  -12.1390   10.7970 C.ar  139  PHE139     -0.0000
    130  N          6.4690  -10.7810    5.2090 N.am  140  SER140     -0.1938
    131  CA         5.9270   -9.4400    4.9600 C.3   140  SER140      0.2055
    132  C          4.8390   -9.5250    3.9150 C.2   140  SER140      0.2643
    133  O          4.7120  -10.5240    3.2000 O.2   140  SER140     -0.2714
    134  CB         7.0300   -8.4990    4.4920 C.3   140  SER140      0.2130
    135  OG         7.5000   -8.8980    3.2200 O.3   140  SER140     -0.2179
    136  N          4.0700   -8.4490    3.8120 N.am  141  THR141     -0.1950
    137  CA         2.9400   -8.4230    2.8870 C.3   141  THR141      0.1897
    138  C          3.3960   -8.4020    1.4290 C.2   141  THR141      0.2313
    139  O          4.1700   -7.5420    1.0160 O.2   141  THR141     -0.2863
    140  CB         2.0040   -7.2550    3.2050 C.3   141  THR141      0.1794
    141  OG1        1.4820   -7.4270    4.5220 O.3   141  THR141     -0.2208
    142  CG2        0.8510   -7.2130    2.2200 C.3   141  THR141      0.0378
    143  N          3.3470   -7.4010   -1.5460 N.3   143  GLU143     -0.1245
    144  CA         3.4010   -6.3590   -2.5910 C.3   143  GLU143      0.1567
    145  C          3.6860   -6.9120   -3.9820 C.2   143  GLU143      0.2260
    146  O          3.0750   -6.4170   -4.9580 O.2   143  GLU143     -0.2867
    147  CB         4.4570   -5.3130   -2.2210 C.3   143  GLU143      0.0388
    148  CG         3.9370   -4.3270   -1.1500 C.3   143  GLU143      0.1160
    149  CD         5.0530   -3.4520   -0.6250 C.2   143  GLU143      0.3649
    150  OE1        6.0870   -3.4510   -1.3300 O.co2 143  GLU143     -0.2457
    151  OE2        4.8460   -2.8430    0.4150 O.co2 143  GLU143     -0.2457
    152  N          9.3140   -4.6800   -0.5040 N.3   146  VAL146     -0.1231
    153  CA         9.9910   -4.3670    0.7460 C.3   146  VAL146      0.1692
    154  C          9.5420   -5.3260    1.8450 C.2   146  VAL146      0.2593
    155  O          8.9150   -6.3450    1.5650 O.2   146  VAL146     -0.2718
    156  CB         9.7110   -2.9110    1.1850 C.3   146  VAL146      0.0266
    157  CG1       10.2850   -1.9430    0.1610 C.3   146  VAL146      0.0020
    158  CG2        8.2140   -2.6900    1.3460 C.3   146  VAL146      0.0020
    159  N          9.8630   -5.0000    3.0890 N.am  147  GLY147     -0.1942
    160  CA         9.4850   -5.8560    4.2010 C.3   147  GLY147      0.2014
    161  C         10.6820   -6.1530    5.0800 C.2   147  GLY147      0.2639
    162  O         11.8150   -6.1320    4.6080 O.2   147  GLY147     -0.2714
    163  N         10.4420   -6.4250    6.3590 N.am  148  MET148     -0.1963
    164  CA        11.5350   -6.7190    7.2810 C.3   148  MET148      0.1736
    165  C         12.3210   -7.9360    6.8000 C.2   148  MET148      0.2616
    166  O         13.5350   -8.0180    7.0030 O.2   148  MET148     -0.2715
    167  CB        10.9900   -6.9840    8.6910 C.3   148  MET148      0.0427
    168  CG        12.0600   -7.2010    9.7630 C.3   148  MET148      0.0599
    169  SD        13.0650   -5.7270   10.1230 S.3   148  MET148     -0.1393
    170  CE        11.8300   -4.7370   11.0280 C.3   148  MET148      0.0692
    171  N         11.6340   -8.8820    6.1630 N.am  149  ASP149     -0.1971
    172  CA        12.3210  -10.0730    5.6700 C.3   149  ASP149      0.1709
    173  C         13.3510   -9.7030    4.6130 C.2   149  ASP149      0.2293
    174  O         14.4320  -10.2850    4.5640 O.2   149  ASP149     -0.2864
    175  CB        11.3250  -11.1050    5.1140 C.3   149  ASP149      0.1436
    176  CG        10.4450  -10.5520    4.0030 C.2   149  ASP149      0.3671
    177  OD1        9.7490  -11.3640    3.3600 O.co2 149  ASP149     -0.2456
    178  OD2       10.4350   -9.3190    3.7790 O.co2 149  ASP149     -0.2456
    179  N         10.0540    0.7530   19.6360 N.3   172  THR172     -0.1218
    180  CA        10.7500   -0.2460   18.8450 C.3   172  THR172      0.1862
    181  C         12.1250    0.2520   18.4370 C.2   172  THR172      0.2287
    182  O         12.2890    1.4090   18.0340 O.2   172  THR172     -0.2866
    183  CB         9.9550   -0.5920   17.5680 C.3   172  THR172      0.1770
    184  OG1        8.6710   -1.1080   17.9330 O.3   172  THR172     -0.2211
    185  CG2       10.6870   -1.6350   16.7420 C.3   172  THR172      0.0375
    186  N         15.4710   -1.0250   16.0910 N.3   174  VAL174     -0.1245
    187  CA        16.0830   -1.9600   15.1490 C.3   174  VAL174      0.1561
    188  C         17.5580   -1.5730   15.0280 C.2   174  VAL174      0.2260
    189  O         17.8760   -0.4100   14.8180 O.2   174  VAL174     -0.2867
    190  CB        15.3960   -1.8660   13.7590 C.3   174  VAL174      0.0252
    191  CG1       15.9630   -2.9240   12.8000 C.3   174  VAL174      0.0019
    192  CG2       13.8850   -2.0680   13.9160 C.3   174  VAL174      0.0019
@<TRIPOS>BOND
     1   146   145    2
     2   145   144    1
     3   144   147    1
     4   144   143    1
     5   147   148    1
     6   150   149   ar
     7   148   149    1
     8   149   151   ar
     9   152   153    1
    10   157   156    1
    11   153   156    1
    12   153   154    1
    13   139   138    2
    14   156   158    1
    15   138   137    1
    16   155   154    2
    17   154   159   am
    18   142   140    1
    19   137   140    1
    20   137   136    1
    21   159   160    1
    22   133   132    2
    23   140   141    1
    24   135   134    1
    25   177   176   ar
    26   178   176   ar
    27   136   132   am
    28   132   131    1
    29   176   175    1
    30   160   161    1
    31     7     9   ar
    32     7     6   ar
    33   134   131    1
    34     5     6    1
    35     5     2    1
    36   174   173    2
    37     1     2    1
    38   162   161    2
    39   173   172    1
    40     9    10   ar
    41     6     8   ar
    42   119   120    1
    43   131   130    1
    44     2     3    1
    45   161   163   am
    46   175   172    1
    47   130   121   am
    48    10     8   ar
    49   172   171    1
    50   121   120    1
    51   121   122    2
    52   120   123    1
    53   171   165   am
    54   163   164    1
    55     3     4    2
    56     3    11   am
    57   165   166    2
    58   165   164    1
    59    11    12    1
    60   164   167    1
    61   123   124    1
    62    25    24    2
    63    19    20    1
    64   124   126   ar
    65   124   125   ar
    66    12    13    1
    67    12    15    1
    68   167   168    1
    69    41    40   ar
    70    41    39   ar
    71    24    26   am
    72    24    23    1
    73   114   113    2
    74    16    15    1
    75    16    17    1
    76    16    18    1
    77   126   128   ar
    78    40    38   ar
    79    13    14    2
    80   125   127   ar
    81   110   109    1
    82    20    23    1
    83    20    21    1
    84   168   169    1
    85    39    37   ar
    86   109   108    1
    87   105   104    2
    88   113   112    1
    89   169   170    1
    90   128   129   ar
    91   108   107    1
    92   127   129   ar
    93    38    37   ar
    94   107   106    1
    95   106   103    1
    96    37    36    1
    97    21    27   am
    98    21    22    2
    99   104   103    1
   100   112   115    1
   101   112   111    1
   102    93    92    1
   103   103   102    1
   104    27    28    1
   105    32    33    1
   106    92    91    1
   107   115   116    1
   108    36    33    1
   109   116   118    1
   110   116   117    1
   111    29    28    1
   112    29    30    2
   113    28    31    1
   114    33    34    1
   115   191   190    1
   116    91    90    1
   117    90    89    1
   118   190   192    1
   119   190   187    1
   120    97    96    2
   121    88    87    2
   122    34    42   am
   123    34    35    2
   124    42    43    1
   125    95    96    1
   126    95    98    1
   127    95    94    1
   128   100    98    1
   129   189   188    2
   130    99    98    1
   131    99   101    1
   132    87    94   am
   133    87    86    1
   134   188   187    1
   135    89    86    1
   136   187   186    1
   137    43    44    1
   138    63    62    1
   139    86    85    1
   140    76    74    1
   141    44    45    2
   142    52    51   ar
   143    75    73    1
   144    74    73    1
   145    62    64    1
   146    62    61    2
   147   185   183    1
   148    50    51    1
   149    50    47    1
   150    51    53   ar
   151    80    79    2
   152    73    70    1
   153    81    82    1
   154    81    78    1
   155    83    82   ar
   156   183   184    1
   157   183   180    1
   158    46    47    1
   159    61    60    1
   160    60    59    1
   161    77    78    1
   162    77    71   am
   163    70    71    1
   164    70    69    1
   165    47    48    1
   166    82    84   ar
   167   182   181    2
   168    79    78    1
   169    59    58    1
   170    71    72    2
   171   181   180    1
   172    68    67    2
   173    69    67   am
   174   180   179    1
   175    67    66    1
   176    48    49    2
   177    58    55    1
   178    54    55    1
   179    65    66    1
   180    65    56   am
   181    55    56    1
   182    56    57    2
