@<TRIPOS>MOLECULE
tmp/1i5dA00.pdb
 164 153 0 0 0
SMALL
GASTEIGER

@<TRIPOS>ATOM
      1  N         11.6180   58.8850   25.2270 N.3    57  LEU57      -0.1245
      2  CA        10.9590   57.7280   24.6410 C.3    57  LEU57       0.1561
      3  C          9.4490   57.9660   24.4900 C.2    57  LEU57       0.2260
      4  O          8.8630   57.6000   23.4510 O.2    57  LEU57      -0.2867
      5  CB        11.1950   56.4970   25.5130 C.3    57  LEU57       0.0270
      6  CG        12.6260   55.9910   25.5160 C.3    57  LEU57       0.0019
      7  CD1       12.6950   54.6550   26.2940 C.3    57  LEU57       0.0001
      8  CD2       13.0940   55.7840   24.0440 C.3    57  LEU57       0.0001
      9  N          8.9990   60.6440   21.7020 N.3    60  ASN60      -0.1225
     10  CA         9.0210   60.1390   20.3360 C.3    60  ASN60       0.1785
     11  C          7.7220   59.4210   20.0060 C.2    60  ASN60       0.2597
     12  O          7.0610   59.7120   19.0070 O.2    60  ASN60      -0.2718
     13  CB        10.1950   59.1880   20.1260 C.3    60  ASN60       0.1169
     14  CG        11.5230   59.8230   20.4810 C.2    60  ASN60       0.2627
     15  OD1       11.8040   60.9730   20.0940 O.2    60  ASN60      -0.2716
     16  ND2       12.3580   59.0780   21.2110 N.am   60  ASN60      -0.0877
     17  N          7.3440   58.4910   20.8710 N.am   61  ALA61      -0.1979
     18  CA         6.1420   57.7100   20.6600 C.3    61  ALA61       0.1597
     19  C          4.8860   58.5480   20.5040 C.2    61  ALA61       0.2287
     20  O          4.0710   58.2670   19.6160 O.2    61  ALA61      -0.2864
     21  CB         5.9740   56.7220   21.7960 C.3    61  ALA61       0.0319
     22  N          4.7100   61.6800   19.5720 N.3    63  ASP63      -0.1225
     23  CA         4.8540   62.5520   18.4100 C.3    63  ASP63       0.1805
     24  C          4.7940   61.7290   17.1480 C.2    63  ASP63       0.2598
     25  O          3.8520   61.7990   16.3560 O.2    63  ASP63      -0.2718
     26  CB         6.2200   63.2470   18.3940 C.3    63  ASP63       0.1424
     27  CG         6.5360   63.9930   19.6730 C.2    63  ASP63       0.3668
     28  OD1        7.6430   64.5760   19.7520 O.co2  63  ASP63      -0.2456
     29  OD2        5.6930   64.0030   20.5910 O.co2  63  ASP63      -0.2456
     30  N          5.8550   60.9490   16.9940 N.am   64  HIS64      -0.1961
     31  CA         6.1000   60.0970   15.8450 C.3    64  HIS64       0.1787
     32  C          5.4160   58.7480   15.8730 C.2    64  HIS64       0.2620
     33  O          5.0740   58.2150   14.8330 O.2    64  HIS64      -0.2715
     34  CB         7.6060   59.9100   15.7120 C.3    64  HIS64       0.0785
     35  CG         8.3690   61.2070   15.8190 C.ar   64  HIS64       0.0821
     36  ND1        7.9340   62.3690   15.2450 N.ar   64  HIS64      -0.2267
     37  CD2        9.5600   61.4880   16.4010 C.ar   64  HIS64       0.1154
     38  CE1        8.8070   63.3270   15.4590 C.ar   64  HIS64       0.1986
     39  NE2        9.8150   62.8220   16.1630 N.ar   64  HIS64      -0.2212
     40  N          5.2080   58.2090   17.0650 N.am   65  GLY65      -0.1954
     41  CA         4.5570   56.9250   17.1920 C.3    65  GLY65       0.1869
     42  C          3.1050   56.9240   16.7790 C.2    65  GLY65       0.2309
     43  O          2.7570   56.4340   15.7250 O.2    65  GLY65      -0.2863
     44  N          4.5930   51.4620   22.0200 N.3   100  ASP100     -0.1239
     45  CA         3.5430   52.3750   21.5240 C.3   100  ASP100      0.1674
     46  C          2.9130   51.5470   20.3800 C.2   100  ASP100      0.2266
     47  O          3.5410   50.5780   19.9480 O.2   100  ASP100     -0.2867
     48  CB         4.0600   53.7400   21.0310 C.3   100  ASP100      0.1410
     49  CG         4.8950   53.6400   19.7760 C.2   100  ASP100      0.3668
     50  OD1        6.1070   53.9150   19.8350 O.co2 100  ASP100     -0.2456
     51  OD2        4.3430   53.2860   18.7170 O.co2 100  ASP100     -0.2456
     52  N          3.2610   53.8680   14.3210 N.3   103  ARG103     -0.1231
     53  CA         3.5500   53.7910   12.9320 C.3   103  ARG103      0.1694
     54  C          4.8050   52.9390   12.8510 C.2   103  ARG103      0.2593
     55  O          4.8980   52.0620   12.0270 O.2   103  ARG103     -0.2718
     56  CB         3.7270   55.2340   12.4960 C.3   103  ARG103      0.0321
     57  CG         4.3280   55.4120   11.1670 C.3   103  ARG103      0.0489
     58  CD         4.5620   56.8870   10.9960 C.3   103  ARG103      0.2205
     59  NE         3.6970   57.4520    9.9750 N.pl3 103  ARG103     -0.0865
     60  CZ         2.7380   58.3350   10.2090 C.cat 103  ARG103      0.5346
     61  NH1        2.4970   58.7590   11.4380 N.pl3 103  ARG103      0.1354
     62  NH2        2.0420   58.8220    9.1960 N.pl3 103  ARG103      0.1354
     63  N          5.7610   53.2100   13.7290 N.am  104  GLY104     -0.1942
     64  CA         6.9630   52.4040   13.7550 C.3   104  GLY104      0.2014
     65  C          8.0670   52.7680   12.8030 C.2   104  GLY104      0.2639
     66  O          7.8460   53.2920   11.7060 O.2   104  GLY104     -0.2714
     67  N          9.2880   52.5090   13.2350 N.am  105  ILE105     -0.1963
     68  CA        10.3830   52.8120   12.3680 C.3   105  ILE105      0.1727
     69  C         10.5240   51.6710   11.3770 C.2   105  ILE105      0.2616
     70  O         10.3150   50.4940   11.6640 O.2   105  ILE105     -0.2715
     71  CB        11.6670   53.0040   13.1120 C.3   105  ILE105      0.0290
     72  CG1       11.3860   53.9360   14.2860 C.3   105  ILE105      0.0022
     73  CG2       12.6970   53.5980   12.1550 C.3   105  ILE105      0.0023
     74  CD1       12.5700   54.1080   15.1810 C.3   105  ILE105      0.0001
     75  N         10.8750   52.0850   10.1760 N.am  106  ASP106     -0.1971
     76  CA        11.0920   51.2520    9.0190 C.3   106  ASP106      0.1709
     77  C         12.5710   50.9230    8.9080 C.2   106  ASP106      0.2293
     78  O         13.3800   51.8050    8.6790 O.2   106  ASP106     -0.2864
     79  CB        10.6850   52.0350    7.7810 C.3   106  ASP106      0.1436
     80  CG        10.6440   51.1670    6.5540 C.2   106  ASP106      0.3671
     81  OD1       11.4660   50.2100    6.4800 O.co2 106  ASP106     -0.2456
     82  OD2        9.7980   51.4290    5.6750 O.co2 106  ASP106     -0.2456
     83  N         14.5390   51.4000    5.2320 N.3   109  LYS109     -0.1231
     84  CA        14.6590   52.8360    4.9480 C.3   109  LYS109      0.1693
     85  C         15.8830   53.3790    5.6410 C.2   109  LYS109      0.2591
     86  O         16.5470   54.3010    5.1360 O.2   109  LYS109     -0.2718
     87  CB        13.4450   53.6780    5.4380 C.3   109  LYS109      0.0285
     88  CG        13.8360   55.1460    5.5170 C.3   109  LYS109      0.0035
     89  CD        12.7260   56.1930    5.6140 C.3   109  LYS109      0.0206
     90  CE        13.3500   57.6210    5.5390 C.3   109  LYS109      0.1093
     91  NZ        12.3750   58.7420    5.5140 N.3   109  LYS109     -0.1314
     92  N         16.1570   52.8250    6.8200 N.am  110  ILE110     -0.1980
     93  CA        17.3210   53.2350    7.6010 C.3   110  ILE110      0.1595
     94  C         18.5320   52.9080    6.7390 C.2   110  ILE110      0.2287
     95  O         19.3810   53.7580    6.4950 O.2   110  ILE110     -0.2864
     96  CB        17.3890   52.4700    8.9760 C.3   110  ILE110      0.0276
     97  CG1       16.9710   53.3890   10.1220 C.3   110  ILE110      0.0022
     98  CG2       18.7730   51.9320    9.2230 C.3   110  ILE110      0.0022
     99  CD1       15.5190   53.7280   10.1210 C.3   110  ILE110      0.0001
    100  N         19.3190   55.3410    4.2770 N.3   113  LYS113     -0.1245
    101  CA        20.0180   56.5430    4.7090 C.3   113  LYS113      0.1561
    102  C         21.3920   56.1940    5.2880 C.2   113  LYS113      0.2260
    103  O         22.3470   56.9380    5.1010 O.2   113  LYS113     -0.2867
    104  CB        19.1920   57.3210    5.7410 C.3   113  LYS113      0.0271
    105  CG        18.0940   58.2060    5.1430 C.3   113  LYS113      0.0035
    106  CD        17.5290   59.1600    6.2030 C.3   113  LYS113      0.0206
    107  CE        16.5460   60.1720    5.6220 C.3   113  LYS113      0.1093
    108  NZ        16.0260   61.1190    6.6580 N.3   113  LYS113     -0.1314
    109  N         20.1450   54.0780   15.0520 N.3   137  LEU137     -0.1245
    110  CA        19.7780   55.4160   15.5070 C.3   137  LEU137      0.1561
    111  C         20.5620   55.7910   16.7710 C.2   137  LEU137      0.2260
    112  O         20.4250   56.8960   17.2870 O.2   137  LEU137     -0.2867
    113  CB        18.2810   55.5280   15.7930 C.3   137  LEU137      0.0270
    114  CG        17.2090   54.8300   14.9610 C.3   137  LEU137      0.0019
    115  CD1       17.4380   55.0410   13.4830 C.3   137  LEU137      0.0001
    116  CD2       17.2240   53.3690   15.2970 C.3   137  LEU137      0.0001
    117  N         23.5450   60.1830   13.4620 N.3   142  PHE142     -0.1227
    118  CA        22.8000   59.3130   12.5350 C.3   142  PHE142      0.1736
    119  C         21.6380   60.0000   11.7500 C.2   142  PHE142      0.2596
    120  O         21.6390   59.9150   10.5190 O.2   142  PHE142     -0.2718
    121  CB        22.3040   58.0580   13.2650 C.3   142  PHE142      0.0547
    122  CG        22.0450   56.8890   12.3570 C.ar  142  PHE142     -0.0202
    123  CD1       22.9910   55.8780   12.1870 C.ar  142  PHE142     -0.0042
    124  CD2       20.8660   56.8260   11.6330 C.ar  142  PHE142     -0.0042
    125  CE1       22.7530   54.8290   11.2960 C.ar  142  PHE142     -0.0003
    126  CE2       20.6290   55.7920   10.7510 C.ar  142  PHE142     -0.0003
    127  CZ        21.5700   54.7940   10.5800 C.ar  142  PHE142     -0.0000
    128  N         20.6600   60.6510   12.3870 N.am  143  SER143     -0.1952
    129  CA        19.6800   61.3280   11.5210 C.3   143  SER143      0.1924
    130  C         20.3810   62.5800   10.9170 C.2   143  SER143      0.2314
    131  O         20.6470   63.4990   11.6950 O.2   143  SER143     -0.2863
    132  CB        18.4460   61.7960   12.3100 C.3   143  SER143      0.2116
    133  OG        18.7840   62.8940   13.1670 O.3   143  SER143     -0.2180
    134  N         19.2480   64.9000    9.1500 N.3   145  LYS145     -0.1245
    135  CA        18.2270   65.8290    8.6780 C.3   145  LYS145      0.1561
    136  C         18.6250   67.1890    9.2350 C.2   145  LYS145      0.2260
    137  O         18.8830   68.1270    8.4770 O.2   145  LYS145     -0.2867
    138  CB        16.8580   65.4320    9.2290 C.3   145  LYS145      0.0271
    139  CG        15.7690   66.3860    8.8250 C.3   145  LYS145      0.0035
    140  CD        14.7290   66.5030    9.9180 C.3   145  LYS145      0.0206
    141  CE        13.7280   67.6050    9.6090 C.3   145  LYS145      0.1093
    142  NZ        12.7250   67.7270   10.7020 N.3   145  LYS145     -0.1314
    143  N         19.4720   60.2170   20.0280 N.3   158  MET158     -0.1245
    144  CA        18.8960   59.0730   20.7160 C.3   158  MET158      0.1570
    145  C         20.0290   58.3300   21.4020 C.2   158  MET158      0.2261
    146  O         19.8330   57.2620   21.9670 O.2   158  MET158     -0.2867
    147  CB        18.1970   58.1470   19.7200 C.3   158  MET158      0.0387
    148  CG        17.0000   57.3830   20.2770 C.3   158  MET158      0.0595
    149  SD        15.5780   58.4520   20.5770 S.3   158  MET158     -0.1393
    150  CE        15.0860   58.8350   18.9120 C.3   158  MET158      0.0692
    151  N          6.0240   50.3500   18.0320 N.3   182  THR182     -0.1218
    152  CA         7.4340   50.2510   18.4060 C.3   182  THR182      0.1862
    153  C          7.6260   49.9530   19.8920 C.2   182  THR182      0.2287
    154  O          7.0350   50.6240   20.7630 O.2   182  THR182     -0.2866
    155  CB         8.1730   51.5620   18.0800 C.3   182  THR182      0.1770
    156  OG1        7.6270   52.1180   16.8810 O.3   182  THR182     -0.2211
    157  CG2        9.6290   51.3030   17.8590 C.3   182  THR182      0.0375
    158  N         10.4760   49.7410   22.8420 N.3   184  VAL184     -0.1245
    159  CA        11.8490   50.0160   23.2500 C.3   184  VAL184      0.1561
    160  C         12.0770   49.5900   24.6870 C.2   184  VAL184      0.2260
    161  O         11.4010   50.0330   25.6000 O.2   184  VAL184     -0.2867
    162  CB        12.1890   51.5330   23.1580 C.3   184  VAL184      0.0252
    163  CG1       13.5990   51.7420   23.5930 C.3   184  VAL184      0.0019
    164  CG2       11.9860   52.0540   21.7300 C.3   184  VAL184      0.0019
@<TRIPOS>BOND
     1   100   101    1
     2   101   102    1
     3   101   104    1
     4    84    83    1
     5    84    87    1
     6    84    85    1
     7   103   102    2
     8    86    85    2
     9   105   104    1
    10   105   106    1
    11    87    88    1
    12    91    90    1
    13    88    89    1
    14    90    89    1
    15   107   106    1
    16   107   108    1
    17    85    92   am
    18    82    80   ar
    19    81    80   ar
    20    95    94    2
    21    80    79    1
    22    94    93    1
    23    92    93    1
    24    93    96    1
    25    79    76    1
    26   137   136    2
    27   135   134    1
    28   135   138    1
    29   135   136    1
    30    78    77    2
    31   139   138    1
    32   139   140    1
    33    77    76    1
    34    96    98    1
    35    96    97    1
    36    76    75    1
    37    62    60    1
    38   141   140    1
    39   141   142    1
    40    59    60    2
    41    59    58    1
    42    99    97    1
    43    75    69   am
    44    60    61    1
    45   120   119    2
    46   127   126   ar
    47   127   125   ar
    48   126   124   ar
    49   130   129    1
    50   130   131    2
    51    58    57    1
    52    57    56    1
    53   125   123   ar
    54    69    70    2
    55    69    68    1
    56   129   132    1
    57   129   128    1
    58   124   122   ar
    59    66    65    2
    60   119   128   am
    61   119   118    1
    62    55    54    2
    63    73    71    1
    64   123   122   ar
    65   132   133    1
    66   122   121    1
    67    68    71    1
    68    68    67    1
    69    56    53    1
    70   118   121    1
    71   118   117    1
    72    65    67   am
    73    65    64    1
    74    54    53    1
    75    54    63   am
    76    53    52    1
    77    71    72    1
    78   115   114    1
    79    63    64    1
    80    72    74    1
    81    33    32    2
    82   114   116    1
    83   114   113    1
    84   109   110    1
    85    36    38   ar
    86    36    35   ar
    87    38    39   ar
    88   110   113    1
    89   110   111    1
    90    34    35    1
    91    34    31    1
    92    43    42    2
    93    35    37   ar
    94    31    32    1
    95    31    30    1
    96    32    40   am
    97    39    37   ar
    98    25    24    2
    99   111   112    2
   100    42    41    1
   101   156   155    1
   102    30    24   am
   103    40    41    1
   104    24    23    1
   105   157   155    1
   106   151   152    1
   107   155   152    1
   108    26    23    1
   109    26    27    1
   110   152   153    1
   111    23    22    1
   112    51    49   ar
   113   150   149    1
   114    12    11    2
   115    20    19    2
   116    27    28   ar
   117    27    29   ar
   118   147   148    1
   119   147   144    1
   120    49    50   ar
   121    49    48    1
   122   153   154    2
   123    47    46    2
   124    11    10    1
   125    11    17   am
   126   143   144    1
   127    15    14    2
   128    13    10    1
   129    13    14    1
   130   148   149    1
   131    10     9    1
   132    46    45    1
   133    14    16   am
   134    19    18    1
   135    18    17    1
   136    18    21    1
   137   144   145    1
   138    48    45    1
   139   145   146    2
   140    45    44    1
   141   164   162    1
   142   158   159    1
   143   162   159    1
   144   162   163    1
   145   159   160    1
   146     4     3    2
   147     8     6    1
   148     3     2    1
   149     2     1    1
   150     2     5    1
   151   160   161    2
   152     5     6    1
   153     6     7    1
