@<TRIPOS>MOLECULE
tmp/1i5eA00.pdb
 146 144 0 0 0
SMALL
GASTEIGER

@<TRIPOS>ATOM
      1  N          4.7850   63.5190   36.4710 N.3    76  ILE76      -0.1231
      2  CA         4.6290   64.8330   37.0960 C.3    76  ILE76       0.1692
      3  C          6.0450   65.4260   37.1800 C.2    76  ILE76       0.2592
      4  O          6.8960   64.8880   37.8870 O.2    76  ILE76      -0.2718
      5  CB         4.0600   64.7000   38.5150 C.3    76  ILE76       0.0266
      6  CG1        2.6290   64.1830   38.4500 C.3    76  ILE76       0.0019
      7  CG2        4.1350   66.0200   39.2260 C.3    76  ILE76       0.0020
      8  CD1        1.9890   63.9580   39.8050 C.3    76  ILE76       0.0001
      9  N          6.3190   66.5000   36.4450 N.am   77  LEU77      -0.1966
     10  CA         7.6470   67.1030   36.4910 C.3    77  LEU77       0.1728
     11  C          8.0570   67.3700   37.9440 C.2    77  LEU77       0.2616
     12  O          7.2220   67.7490   38.7510 O.2    77  LEU77      -0.2715
     13  CB         7.6590   68.4060   35.7100 C.3    77  LEU77       0.0311
     14  CG         7.3510   68.3420   34.2170 C.3    77  LEU77       0.0022
     15  CD1        7.5230   69.7270   33.6030 C.3    77  LEU77       0.0001
     16  CD2        8.2880   67.3760   33.5390 C.3    77  LEU77       0.0001
     17  N          9.3210   67.1250   38.2910 N.am   78  ARG78      -0.1963
     18  CA        10.3000   66.5990   37.3410 C.3    78  ARG78       0.1729
     19  C         10.6340   65.1280   37.5870 C.2    78  ARG78       0.2616
     20  O         10.8290   64.3660   36.6370 O.2    78  ARG78      -0.2715
     21  CB        11.5920   67.4150   37.3920 C.3    78  ARG78       0.0348
     22  CG        12.2620   67.3900   38.7370 C.3    78  ARG78       0.0492
     23  CD        13.5850   68.1190   38.6950 C.3    78  ARG78       0.2205
     24  NE        14.2720   68.0360   39.9810 N.pl3  78  ARG78      -0.0865
     25  CZ        15.5810   68.2220   40.1470 C.cat  78  ARG78       0.5346
     26  NH1       16.3680   68.5070   39.1020 N.pl3  78  ARG78       0.1354
     27  NH2       16.1010   68.1130   41.3650 N.pl3  78  ARG78       0.1354
     28  N         10.6880   64.7260   38.8520 N.am   79  ALA79      -0.1977
     29  CA        11.0380   63.3460   39.1830 C.3    79  ALA79       0.1597
     30  C         10.1370   62.3180   38.5300 C.2    79  ALA79       0.2287
     31  O         10.3570   61.1230   38.6570 O.2    79  ALA79      -0.2864
     32  CB        11.0310   63.1440   40.6940 C.3    79  ALA79       0.0319
     33  N         -0.4200   72.7480   45.4910 N.3   110  PRO110     -0.2116
     34  CA         0.2100   73.0070   44.1970 C.3   110  PRO110      0.1372
     35  C         -0.8940   73.3800   43.2210 C.2   110  PRO110      0.2244
     36  O         -2.0750   73.2240   43.5240 O.2   110  PRO110     -0.2868
     37  CB         0.8330   71.6660   43.8390 C.3   110  PRO110      0.0268
     38  CG         1.0110   70.9930   45.1450 C.3   110  PRO110      0.0207
     39  CD        -0.2530   71.3370   45.8590 C.3   110  PRO110      0.0892
     40  N          4.6960   59.3140   39.5650 N.3   130  ASP130     -0.1225
     41  CA         5.5530   60.1790   40.3580 C.3   130  ASP130      0.1790
     42  C          6.1800   59.2790   41.4110 C.2   130  ASP130      0.2440
     43  O          5.4970   58.4940   42.0490 O.2   130  ASP130     -0.2733
     44  CB         4.7370   61.2940   41.0130 C.3   130  ASP130      0.1423
     45  CG         5.6130   62.3360   41.6870 C.2   130  ASP130      0.3668
     46  OD1        5.3430   63.5450   41.5360 O.co2 130  ASP130     -0.2456
     47  OD2        6.5750   61.9460   42.3790 O.co2 130  ASP130     -0.2456
     48  N          7.5000   59.3720   41.5980 N.am  131  PRO131     -0.2718
     49  CA         8.1720   58.5280   42.5910 C.3   131  PRO131      0.1535
     50  C          7.5460   58.5530   43.9880 C.2   131  PRO131      0.2598
     51  O          7.3420   57.5030   44.6090 O.2   131  PRO131     -0.2715
     52  CB         9.5920   59.0820   42.6030 C.3   131  PRO131      0.0310
     53  CG         9.7640   59.6050   41.2160 C.3   131  PRO131      0.0237
     54  CD         8.4600   60.2740   40.9340 C.3   131  PRO131      0.0939
     55  N          7.2350   59.7550   44.4720 N.am  132  MET132     -0.1964
     56  CA         6.6880   59.9140   45.8170 C.3   132  MET132      0.1736
     57  C          5.2820   60.5200   45.9430 C.2   132  MET132      0.2616
     58  O          4.9370   61.5080   45.2820 O.2   132  MET132     -0.2715
     59  CB         7.6560   60.7650   46.6550 C.3   132  MET132      0.0427
     60  CG         9.1080   60.3080   46.6480 C.3   132  MET132      0.0599
     61  SD         9.3070   58.7250   47.4500 S.3   132  MET132     -0.1393
     62  CE         9.9070   59.2010   49.0630 C.3   132  MET132      0.0692
     63  N          4.4690   59.9180   46.7990 N.am  133  LEU133     -0.1963
     64  CA         3.1380   60.4270   47.0790 C.3   133  LEU133      0.1728
     65  C          3.2480   60.8290   48.5550 C.2   133  LEU133      0.2616
     66  O          3.1160   59.9840   49.4460 O.2   133  LEU133     -0.2715
     67  CB         2.0950   59.3330   46.8920 C.3   133  LEU133      0.0311
     68  CG         0.6500   59.7110   47.2250 C.3   133  LEU133      0.0022
     69  CD1        0.1750   60.8080   46.3110 C.3   133  LEU133      0.0001
     70  CD2       -0.2420   58.4960   47.0690 C.3   133  LEU133      0.0001
     71  N          3.5270   62.1100   48.8090 N.am  134  ALA134     -0.1963
     72  CA         3.7050   62.6150   50.1730 C.3   134  ALA134      0.1728
     73  C          2.4480   63.1820   50.8230 C.2   134  ALA134      0.2617
     74  O          1.7460   62.4960   51.5700 O.2   134  ALA134     -0.2715
     75  CB         4.7900   63.6680   50.1890 C.3   134  ALA134      0.0334
     76  N          2.1880   64.4550   50.5620 N.am  135  THR135     -0.1937
     77  CA         1.0140   65.1090   51.1150 C.3   135  THR135      0.2028
     78  C         -0.1700   64.8710   50.1900 C.2   135  THR135      0.2643
     79  O         -1.3130   65.1520   50.5490 O.2   135  THR135     -0.2714
     80  CB         1.2120   66.6000   51.1970 C.3   135  THR135      0.1808
     81  OG1        1.2990   67.1170   49.8670 O.3   135  THR135     -0.2208
     82  CG2        2.4650   66.9310   51.9710 C.3   135  THR135      0.0379
     83  N          0.1140   64.3600   48.9950 N.am  136  GLY136     -0.1939
     84  CA        -0.9380   64.1050   48.0300 C.3   136  GLY136      0.2014
     85  C         -1.2650   65.3680   47.2670 C.2   136  GLY136      0.2639
     86  O         -2.0700   65.3550   46.3390 O.2   136  GLY136     -0.2714
     87  N         -0.6290   66.4650   47.6610 N.am  137  GLY137     -0.1939
     88  CA        -0.8650   67.7330   47.0010 C.3   137  GLY137      0.2014
     89  C         -0.6780   67.6900   45.4980 C.2   137  GLY137      0.2640
     90  O         -1.6070   67.9680   44.7360 O.2   137  GLY137     -0.2714
     91  N          0.5320   67.3320   45.0720 N.am  138  SER138     -0.1935
     92  CA         0.8760   67.2590   43.6560 C.3   138  SER138      0.2055
     93  C          0.0070   66.2550   42.8960 C.2   138  SER138      0.2642
     94  O         -0.4110   66.5100   41.7690 O.2   138  SER138     -0.2714
     95  CB         2.3500   66.8900   43.5200 C.3   138  SER138      0.2130
     96  OG         3.1180   67.6390   44.4340 O.3   138  SER138     -0.2179
     97  N         -0.2680   65.1150   43.5120 N.am  139  ALA139     -0.1977
     98  CA        -1.0840   64.1090   42.8520 C.3   139  ALA139      0.1597
     99  C         -2.4780   64.6540   42.5450 C.2   139  ALA139      0.2287
    100  O         -2.9370   64.5960   41.3990 O.2   139  ALA139     -0.2864
    101  CB        -1.1740   62.8480   43.7210 C.3   139  ALA139      0.0319
    102  N          7.9190   67.7250   54.9750 N.3   191  GLY191     -0.1210
    103  CA         7.1310   67.0670   53.9500 C.3   191  GLY191      0.1956
    104  C          7.7320   65.8490   53.2930 C.2   191  GLY191      0.2612
    105  O          7.2200   65.3850   52.2750 O.2   191  GLY191     -0.2717
    106  N          8.8120   65.3300   53.8660 N.am  192  TYR192     -0.1962
    107  CA         9.4640   64.1360   53.3340 C.3   192  TYR192      0.1771
    108  C          8.8420   62.8610   53.9150 C.2   192  TYR192      0.2619
    109  O          8.4250   62.8340   55.0760 O.2   192  TYR192     -0.2715
    110  CB        10.9610   64.1510   53.6620 C.3   192  TYR192      0.0574
    111  CG        11.7690   65.0940   52.8090 C.ar  192  TYR192     -0.0198
    112  CD1       11.5330   66.4680   52.8400 C.ar  192  TYR192     -0.0009
    113  CD2       12.7620   64.6160   51.9550 C.ar  192  TYR192     -0.0009
    114  CE1       12.2680   67.3460   52.0390 C.ar  192  TYR192      0.0417
    115  CE2       13.5010   65.4820   51.1480 C.ar  192  TYR192      0.0417
    116  CZ        13.2460   66.8440   51.1960 C.ar  192  TYR192      0.1957
    117  OH        13.9520   67.7070   50.3970 O.3   192  TYR192     -0.2866
    118  N          8.7760   61.8060   53.1090 N.am  193  ILE193     -0.1977
    119  CA         8.2260   60.5490   53.5950 C.3   193  ILE193      0.1596
    120  C          9.2580   59.8620   54.4850 C.2   193  ILE193      0.2287
    121  O         10.4470   59.8660   54.1860 O.2   193  ILE193     -0.2864
    122  CB         7.8520   59.6170   52.4420 C.3   193  ILE193      0.0276
    123  CG1        6.7570   60.2690   51.5960 C.3   193  ILE193      0.0022
    124  CG2        7.3950   58.2810   52.9930 C.3   193  ILE193      0.0022
    125  CD1        6.3200   59.4530   50.3950 C.3   193  ILE193      0.0001
    126  N         14.4150   60.2610   50.5700 N.3   198  GLY198     -0.1210
    127  CA        14.9450   61.5860   50.3290 C.3   198  GLY198      0.1956
    128  C         14.2470   62.2820   49.1660 C.2   198  GLY198      0.2612
    129  O         13.0780   62.0280   48.8780 O.2   198  GLY198     -0.2717
    130  N         14.9830   63.1480   48.4820 N.am  199  ASP199     -0.1959
    131  CA        14.4640   63.9310   47.3620 C.3   199  ASP199      0.1840
    132  C         14.5950   63.2280   46.0120 C.2   199  ASP199      0.2622
    133  O         15.6200   63.3380   45.3650 O.2   199  ASP199     -0.2715
    134  CB        15.2160   65.2640   47.3240 C.3   199  ASP199      0.1450
    135  CG        14.6020   66.2590   46.3720 C.2   199  ASP199      0.3671
    136  OD1       14.6120   66.0080   45.1490 O.co2 199  ASP199     -0.2456
    137  OD2       14.1100   67.3030   46.8550 O.co2 199  ASP199     -0.2456
    138  N         13.5510   62.5310   45.5810 N.am  200  ALA200     -0.1963
    139  CA        13.5670   61.8030   44.3080 C.3   200  ALA200      0.1728
    140  C         14.2400   62.5610   43.1580 C.2   200  ALA200      0.2616
    141  O         15.0810   62.0080   42.4370 O.2   200  ALA200     -0.2715
    142  CB        12.1480   61.4080   43.9120 C.3   200  ALA200      0.0334
    143  N         13.8770   63.8240   42.9820 N.am  201  GLY201     -0.1955
    144  CA        14.4670   64.6180   41.9210 C.3   201  GLY201      0.1869
    145  C         15.9790   64.7710   41.9860 C.2   201  GLY201      0.2309
    146  O         16.6510   64.6150   40.9730 O.2   201  GLY201     -0.2863
@<TRIPOS>BOND
     1    16    14    1
     2    15    14    1
     3    14    13    1
     4    13    10    1
     5     9    10    1
     6     9     3   am
     7     1     2    1
     8    10    11    1
     9    20    19    2
    10     2     3    1
    11     2     5    1
    12     3     4    2
    13    18    21    1
    14    18    19    1
    15    18    17    1
    16    21    22    1
    17    19    28   am
    18    11    17   am
    19    11    12    2
    20     6     5    1
    21     6     8    1
    22     5     7    1
    23    30    31    2
    24    30    29    1
    25    23    22    1
    26    23    24    1
    27    28    29    1
    28    26    25    1
    29    29    32    1
    30    40    41    1
    31    24    25    2
    32    25    27    1
    33    41    44    1
    34    41    42    1
    35    54    53    1
    36    54    48    1
    37   146   145    2
    38    44    45    1
    39    53    52    1
    40   100    99    2
    41    42    48   am
    42    42    43    2
    43    46    45   ar
    44    48    49    1
    45    45    47   ar
    46    94    93    2
    47   144   145    1
    48   144   143    1
    49   141   140    2
    50    99    98    1
    51    49    52    1
    52    49    50    1
    53    98    97    1
    54    98   101    1
    55    93    97   am
    56    93    92    1
    57   143   140   am
    58   140   139    1
    59    35    36    2
    60    35    34    1
    61    95    92    1
    62    95    96    1
    63    92    91    1
    64    37    34    1
    65    37    38    1
    66   142   139    1
    67    50    55   am
    68    50    51    2
    69    34    33    1
    70   139   138    1
    71    55    56    1
    72    90    89    2
    73    91    89   am
    74    38    39    1
    75   136   135   ar
    76    58    57    2
    77   133   132    2
    78    33    39    1
    79    89    88    1
    80   138   132   am
    81    56    57    1
    82    56    59    1
    83    57    63   am
    84   132   131    1
    85    69    68    1
    86    86    85    2
    87   135   137   ar
    88   135   134    1
    89    60    59    1
    90    60    61    1
    91    63    64    1
    92    67    64    1
    93    67    68    1
    94    88    87    1
    95    70    68    1
    96    64    65    1
    97    85    87   am
    98    85    84    1
    99   134   131    1
   100   131   130    1
   101    61    62    1
   102    84    83    1
   103   130   128   am
   104    65    71   am
   105    65    66    2
   106    71    72    1
   107   129   128    2
   108    83    78   am
   109   128   127    1
   110    81    80    1
   111    72    75    1
   112    72    73    1
   113    78    79    2
   114    78    77    1
   115   127   126    1
   116   125   123    1
   117   117   116    1
   118    76    73   am
   119    76    77    1
   120    73    74    2
   121    77    80    1
   122   115   116   ar
   123   115   113   ar
   124   116   114   ar
   125    80    82    1
   126   123   122    1
   127   113   111   ar
   128   114   112   ar
   129   105   104    2
   130   122   124    1
   131   122   119    1
   132   111   112   ar
   133   111   110    1
   134   118   119    1
   135   118   108   am
   136   104   106   am
   137   104   103    1
   138   107   110    1
   139   107   106    1
   140   107   108    1
   141   119   120    1
   142   108   109    2
   143   103   102    1
   144   121   120    2
