@<TRIPOS>MOLECULE
tmp/1i5gA00.pdb
 89 92 0 0 0
SMALL
GASTEIGER

@<TRIPOS>ATOM
      1  N         16.6830   37.0420   20.7100 N.3    39  TRP39      -0.1227
      2  CA        17.5910   37.8800   19.9180 C.3    39  TRP39       0.1737
      3  C         17.7120   37.3330   18.5080 C.2    39  TRP39       0.2596
      4  O         18.2490   38.0520   17.6650 O.2    39  TRP39      -0.2718
      5  CB        18.9570   37.9140   20.5720 C.3    39  TRP39       0.0564
      6  CG        19.6920   36.6170   20.6950 C.ar   39  TRP39       0.0003
      7  CD1       19.7600   35.7990   21.7900 C.ar   39  TRP39       0.0946
      8  CD2       20.5030   35.9500   19.7140 C.ar   39  TRP39       0.0152
      9  NE1       20.5260   34.6880   21.5450 N.ar   39  TRP39      -0.2442
     10  CE2       21.0080   34.7520   20.2670 C.ar   39  TRP39       0.0810
     11  CE3       20.8730   36.2410   18.3930 C.ar   39  TRP39       0.0012
     12  CZ2       21.8320   33.8820   19.5810 C.ar   39  TRP39       0.0191
     13  CZ3       21.7030   35.3390   17.7260 C.ar   39  TRP39       0.0001
     14  CH2       22.1740   34.2010   18.3120 C.ar   39  TRP39       0.0015
     15  N         17.2670   36.1300   18.1910 N.am   40  CYS40      -0.1957
     16  CA        17.4070   35.5120   16.8800 C.3    40  CYS40       0.1828
     17  C         16.1120   35.6050   16.0870 C.2    40  CYS40       0.2467
     18  O         15.1290   34.9470   16.3970 O.2    40  CYS40      -0.2730
     19  CB        17.8040   34.0520   17.0720 C.3    40  CYS40       0.0996
     20  SG        18.1560   33.1200   15.5400 S.3    40  CYS40      -0.0797
     21  N         16.0820   36.4380   15.0520 N.am   41  PRO41      -0.2716
     22  CA        14.8590   36.5440   14.2460 C.3    41  PRO41       0.1521
     23  C         14.3540   35.2350   13.7000 C.2    41  PRO41       0.2440
     24  O         13.1630   34.9490   13.8420 O.2    41  PRO41      -0.2731
     25  CB        15.1570   37.6020   13.1780 C.3    41  PRO41       0.0310
     26  CG        16.2860   38.3200   13.7220 C.3    41  PRO41       0.0237
     27  CD        17.1320   37.3570   14.5660 C.3    41  PRO41       0.0939
     28  N         15.1860   34.3930   13.0830 N.am   42  PRO42      -0.2727
     29  CA        14.6480   33.1190   12.6110 C.3    42  PRO42       0.1402
     30  C         13.9500   32.2410   13.6470 C.2    42  PRO42       0.2269
     31  O         12.9800   31.5200   13.4520 O.2    42  PRO42      -0.2865
     32  CB        15.8870   32.4510   11.9940 C.3    42  PRO42       0.0296
     33  CG        16.7970   33.5130   11.6760 C.3    42  PRO42       0.0237
     34  CD        16.6120   34.5590   12.7480 C.3    42  PRO42       0.0939
     35  N         18.7310   30.2600   24.7250 N.3    70  TRP70      -0.1241
     36  CA        19.9550   30.9950   24.4760 C.3    70  TRP70       0.1605
     37  C         19.7180   32.4840   24.6500 C.2    70  TRP70       0.2264
     38  O         20.4310   33.3030   24.0660 O.2    70  TRP70      -0.2867
     39  CB        20.4690   30.7220   23.0670 C.3    70  TRP70       0.0550
     40  CG        21.1350   29.4080   22.8070 C.ar   70  TRP70       0.0003
     41  CD1       21.1970   28.2930   23.5970 C.ar   70  TRP70       0.0946
     42  CD2       21.8940   29.0780   21.6310 C.ar   70  TRP70       0.0152
     43  NE1       21.9200   27.2960   22.9880 N.ar   70  TRP70      -0.2442
     44  CE2       22.3590   27.7590   21.7780 C.ar   70  TRP70       0.0810
     45  CE3       22.2290   29.7680   20.4600 C.ar   70  TRP70       0.0012
     46  CZ2       23.1280   27.1290   20.8180 C.ar   70  TRP70       0.0191
     47  CZ3       22.9900   29.1320   19.5060 C.ar   70  TRP70       0.0001
     48  CH2       23.4390   27.8280   19.6970 C.ar   70  TRP70       0.0015
     49  N         24.4040   23.6490   17.1600 N.3   107  LYS107     -0.1231
     50  CA        25.3380   24.6930   16.7330 C.3   107  LYS107      0.1693
     51  C         24.6350   25.9680   16.3000 C.2   107  LYS107      0.2593
     52  O         25.2270   27.0450   16.2530 O.2   107  LYS107     -0.2718
     53  CB        26.2590   24.2260   15.6060 C.3   107  LYS107      0.0285
     54  CG        26.9400   22.8780   15.8890 C.3   107  LYS107      0.0035
     55  CD        28.0810   23.0060   16.8850 C.3   107  LYS107      0.0206
     56  CE        28.8510   21.6890   17.0390 C.3   107  LYS107      0.1093
     57  NZ        29.9990   21.8940   17.9680 N.3   107  LYS107     -0.1314
     58  N         23.3560   25.8500   15.9760 N.am  108  SER108     -0.1938
     59  CA        22.5100   26.9210   15.5300 C.3   108  SER108      0.2055
     60  C         21.1140   26.8500   16.1130 C.2   108  SER108      0.2643
     61  O         20.7250   25.7810   16.5680 O.2   108  SER108     -0.2714
     62  CB        22.4250   27.0450   14.0090 C.3   108  SER108      0.2130
     63  OG        21.7730   25.9130   13.4820 O.3   108  SER108     -0.2179
     64  N         20.3700   27.9360   16.1010 N.am  109  ILE109     -0.1963
     65  CA        18.9810   28.0520   16.5110 C.3   109  ILE109      0.1712
     66  C         18.1840   28.6800   15.3740 C.2   109  ILE109      0.2458
     67  O         18.7350   29.4760   14.6170 O.2   109  ILE109     -0.2730
     68  CB        18.8200   28.8080   17.8290 C.3   109  ILE109      0.0289
     69  CG1       19.4100   30.2200   17.7820 C.3   109  ILE109      0.0022
     70  CG2       19.4450   27.9900   18.9650 C.3   109  ILE109      0.0023
     71  CD1       18.9940   31.0570   18.9920 C.3   109  ILE109      0.0001
     72  N         16.9050   28.3470   15.2330 N.am  110  PRO110     -0.2727
     73  CA        16.2000   27.3850   16.0900 C.3   110  PRO110      0.1402
     74  C         16.5140   25.9390   15.7640 C.2   110  PRO110      0.2269
     75  O         16.6950   25.5830   14.5840 O.2   110  PRO110     -0.2865
     76  CB        14.7350   27.6270   15.7280 C.3   110  PRO110      0.0296
     77  CG        14.7870   28.1350   14.3120 C.3   110  PRO110      0.0237
     78  CD        16.0540   28.9380   14.1820 C.3   110  PRO110      0.0939
     79  N         12.6640   20.8010   13.7250 N.3   128  ARG128     -0.1245
     80  CA        12.3960   22.1490   13.2400 C.3   128  ARG128      0.1563
     81  C         11.8920   22.1120   11.8040 C.2   128  ARG128      0.2260
     82  O         10.8030   22.6540   11.4830 O.2   128  ARG128     -0.2867
     83  CB        13.5880   23.0770   13.4200 C.3   128  ARG128      0.0307
     84  CG        13.3080   24.5400   12.9880 C.3   128  ARG128      0.0489
     85  CD        13.1010   24.7700   11.4590 C.3   128  ARG128      0.2205
     86  NE        13.1820   26.1910   11.1030 N.pl3 128  ARG128     -0.0865
     87  CZ        14.3280   26.7830   10.9730 C.cat 128  ARG128      0.5346
     88  NH1       15.4730   26.1590   11.1400 N.pl3 128  ARG128      0.1354
     89  NH2       14.2960   28.0740   10.6600 N.pl3 128  ARG128      0.1354
@<TRIPOS>BOND
     1    89    87    1
     2    87    86    2
     3    87    88    1
     4    86    85    1
     5    85    84    1
     6    82    81    2
     7    33    32    1
     8    33    34    1
     9    81    80    1
    10    32    29    1
    11    29    28    1
    12    29    30    1
    13    34    28    1
    14    84    83    1
    15    28    23   am
    16    25    26    1
    17    25    22    1
    18    80    83    1
    19    80    79    1
    20    31    30    2
    21    63    62    1
    22    23    24    2
    23    23    22    1
    24    26    27    1
    25    62    59    1
    26    78    77    1
    27    78    72    1
    28    22    21    1
    29    77    76    1
    30    27    21    1
    31    75    74    2
    32    67    66    2
    33    21    17   am
    34    72    66   am
    35    72    73    1
    36    66    65    1
    37    59    58    1
    38    59    60    1
    39    20    19    1
    40    53    54    1
    41    53    50    1
    42    76    73    1
    43    74    73    1
    44    54    55    1
    45    58    51   am
    46    17    18    2
    47    17    16    1
    48    64    60   am
    49    64    65    1
    50    60    61    2
    51    52    51    2
    52    51    50    1
    53    65    68    1
    54    50    49    1
    55    16    19    1
    56    16    15    1
    57    55    56    1
    58    56    57    1
    59     4     3    2
    60    13    14   ar
    61    13    11   ar
    62    69    68    1
    63    69    71    1
    64    68    70    1
    65    15     3   am
    66    14    12   ar
    67    11     8   ar
    68     3     2    1
    69    47    48   ar
    70    47    45   ar
    71    12    10   ar
    72    48    46   ar
    73     8    10   ar
    74     8     6   ar
    75     2     5    1
    76     2     1    1
    77    10     9   ar
    78    45    42   ar
    79     5     6    1
    80     6     7   ar
    81    46    44   ar
    82     9     7   ar
    83    42    44   ar
    84    42    40   ar
    85    44    43   ar
    86    40    39    1
    87    40    41   ar
    88    43    41   ar
    89    39    36    1
    90    38    37    2
    91    36    37    1
    92    36    35    1
