@<TRIPOS>MOLECULE
tmp/1i5qB00.pdb
 172 159 0 0 0
SMALL
GASTEIGER

@<TRIPOS>ATOM
      1  N         75.9710    1.2850   29.6660 N.3    61  SER61      -0.1217
      2  CA        74.6880    1.8490   29.1970 C.3    61  SER61       0.1889
      3  C         73.7060    0.8300   28.6310 C.2    61  SER61       0.2288
      4  O         72.5440    1.1660   28.4450 O.2    61  SER61      -0.2866
      5  CB        74.8570    3.0010   28.1820 C.3    61  SER61       0.2089
      6  OG        75.3510    4.1930   28.8250 O.3    61  SER61      -0.2183
      7  N         70.4270    0.3650   30.3530 N.3    64  LYS64      -0.1245
      8  CA        69.2210    1.1590   30.0680 C.3    64  LYS64       0.1561
      9  C         68.1480    0.3820   29.3380 C.2    64  LYS64       0.2260
     10  O         66.9790    0.7910   29.3640 O.2    64  LYS64      -0.2867
     11  CB        69.5790    2.4260   29.2470 C.3    64  LYS64       0.0271
     12  CG        70.4280    3.4200   30.0650 C.3    64  LYS64       0.0035
     13  CD        71.0830    4.4500   29.1150 C.3    64  LYS64       0.0206
     14  CE        71.7300    5.6030   29.8730 C.3    64  LYS64       0.1093
     15  NZ        73.1520    5.3750   30.0920 N.3    64  LYS64      -0.1314
     16  N         74.5980   14.4530   30.4440 N.3   116  LEU116     -0.1231
     17  CA        75.0430   13.0950   30.1430 C.3   116  LEU116      0.1693
     18  C         75.2040   12.2480   31.3960 C.2   116  LEU116      0.2592
     19  O         74.7680   11.0810   31.4520 O.2   116  LEU116     -0.2718
     20  CB        76.3640   13.1220   29.3620 C.3   116  LEU116      0.0284
     21  CG        77.0100   11.7700   29.0060 C.3   116  LEU116      0.0019
     22  CD1       76.0700   10.9340   28.0880 C.3   116  LEU116      0.0001
     23  CD2       78.3100   12.0090   28.2530 C.3   116  LEU116      0.0001
     24  N         75.8400   12.8250   32.4090 N.am  117  GLN117     -0.1966
     25  CA        76.0510   12.0920   33.6410 C.3   117  GLN117      0.1733
     26  C         75.6170   12.9230   34.8380 C.2   117  GLN117      0.2616
     27  O         75.5780   14.1410   34.7780 O.2   117  GLN117     -0.2715
     28  CB        77.5360   11.7920   33.8370 C.3   117  GLN117      0.0408
     29  CG        78.2010   10.9800   32.7400 C.3   117  GLN117      0.0908
     30  CD        79.6770   10.7500   33.0270 C.2   117  GLN117      0.2608
     31  OE1       80.1190   10.8630   34.1870 O.2   117  GLN117     -0.2717
     32  NE2       80.4450   10.4060   31.9910 N.am  117  GLN117     -0.0878
     33  N         75.2920   12.2260   35.9150 N.am  118  VAL118     -0.1977
     34  CA        74.9730   12.8670   37.1760 C.3   118  VAL118      0.1596
     35  C         76.4000   13.2070   37.6790 C.2   118  VAL118      0.2287
     36  O         77.2950   12.3800   37.6160 O.2   118  VAL118     -0.2864
     37  CB        74.3330   11.8700   38.1430 C.3   118  VAL118      0.0276
     38  CG1       74.1550   12.5170   39.5370 C.3   118  VAL118      0.0022
     39  CG2       72.9990   11.4280   37.5980 C.3   118  VAL118      0.0022
     40  N         79.7680   13.5270   39.7070 N.3   120  ASP120     -0.1239
     41  CA        80.4020   12.6730   40.6920 C.3   120  ASP120      0.1674
     42  C         80.2140   13.1410   42.1240 C.2   120  ASP120      0.2266
     43  O         80.1800   12.3140   43.0260 O.2   120  ASP120     -0.2867
     44  CB        81.8850   12.5880   40.4040 C.3   120  ASP120      0.1410
     45  CG        82.3060   11.2040   40.0130 C.2   120  ASP120      0.3668
     46  OD1       81.7740   10.6930   39.0000 O.co2 120  ASP120     -0.2456
     47  OD2       83.1610   10.6280   40.7230 O.co2 120  ASP120     -0.2456
     48  N         71.2040   12.6420   24.7410 N.3   147  TYR147     -0.1241
     49  CA        71.4270   11.3640   25.4270 C.3   147  TYR147      0.1605
     50  C         71.9400   11.6700   26.8330 C.2   147  TYR147      0.2264
     51  O         72.8840   12.4270   26.9850 O.2   147  TYR147     -0.2867
     52  CB        72.4060   10.4930   24.6370 C.3   147  TYR147      0.0534
     53  CG        72.6900    9.1610   25.2970 C.ar  147  TYR147     -0.0201
     54  CD1       73.8300    8.9780   26.0580 C.ar  147  TYR147     -0.0009
     55  CD2       71.8330    8.0660   25.1080 C.ar  147  TYR147     -0.0009
     56  CE1       74.1360    7.7330   26.6080 C.ar  147  TYR147      0.0417
     57  CE2       72.1200    6.8410   25.6460 C.ar  147  TYR147      0.0417
     58  CZ        73.2810    6.6810   26.3920 C.ar  147  TYR147      0.1957
     59  OH        73.6060    5.4680   26.8830 O.3   147  TYR147     -0.2866
     60  N         72.2650    9.8840   31.0070 N.3   149  ALA149     -0.1245
     61  CA        72.0670    8.9430   32.1000 C.3   149  ALA149      0.1562
     62  C         71.2660    9.6230   33.2170 C.2   149  ALA149      0.2260
     63  O         70.5200    8.9710   33.9370 O.2   149  ALA149     -0.2867
     64  CB        73.4690    8.4370   32.6520 C.3   149  ALA149      0.0290
     65  N         83.4610   -0.8870   37.7400 N.3   208  VAL208     -0.1231
     66  CA        82.7120    0.3710   37.7920 C.3   208  VAL208      0.1692
     67  C         82.4760    0.8300   39.2540 C.2   208  VAL208      0.2592
     68  O         82.2000    0.0240   40.1330 O.2   208  VAL208     -0.2718
     69  CB        81.3550    0.1890   37.0490 C.3   208  VAL208      0.0266
     70  CG1       80.4610   -0.7630   37.8300 C.3   208  VAL208      0.0020
     71  CG2       80.7120    1.5370   36.7780 C.3   208  VAL208      0.0020
     72  N         82.5650    2.1310   39.5090 N.am  209  SER209     -0.1952
     73  CA        82.3590    2.6310   40.8790 C.3   209  SER209      0.1924
     74  C         80.9200    3.0140   41.1760 C.2   209  SER209      0.2314
     75  O         80.1340    3.2920   40.2710 O.2   209  SER209     -0.2863
     76  CB        83.2480    3.8390   41.1180 C.3   209  SER209      0.2116
     77  OG        84.5760    3.4650   40.7920 O.3   209  SER209     -0.2180
     78  N         77.7120    5.1760   42.2310 N.3   211  GLY211     -0.1225
     79  CA        77.4010    6.5400   41.8650 C.3   211  GLY211      0.1811
     80  C         75.9120    6.7310   41.9720 C.2   211  GLY211      0.2280
     81  O         75.1800    5.7520   42.0390 O.2   211  GLY211     -0.2866
     82  N         73.5420    2.3380   34.6490 N.3   218  TYR218     -0.1241
     83  CA        74.6870    1.5260   34.2360 C.3   218  TYR218      0.1605
     84  C         75.0240    0.4350   35.2530 C.2   218  TYR218      0.2264
     85  O         76.1540   -0.0220   35.3370 O.2   218  TYR218     -0.2867
     86  CB        75.9140    2.4300   33.9880 C.3   218  TYR218      0.0534
     87  CG        76.3370    3.3160   35.1750 C.ar  218  TYR218     -0.0201
     88  CD1       77.1910    2.8330   36.1870 C.ar  218  TYR218     -0.0009
     89  CD2       75.8870    4.6220   35.2720 C.ar  218  TYR218     -0.0009
     90  CE1       77.5800    3.6630   37.2580 C.ar  218  TYR218      0.0417
     91  CE2       76.2490    5.4510   36.3130 C.ar  218  TYR218      0.0417
     92  CZ        77.1020    4.9690   37.3070 C.ar  218  TYR218      0.1957
     93  OH        77.4690    5.8270   38.3240 O.3   218  TYR218     -0.2866
     94  N         76.9950    6.0540   15.8080 N.3   284  SER284     -0.1217
     95  CA        77.4210    5.5650   17.1080 C.3   284  SER284      0.1889
     96  C         78.6620    6.2930   17.6180 C.2   284  SER284      0.2288
     97  O         79.0510    6.1380   18.7930 O.2   284  SER284     -0.2866
     98  CB        77.6870    4.0670   17.0500 C.3   284  SER284      0.2089
     99  OG        78.8870    3.8090   16.3360 O.3   284  SER284     -0.2183
    100  N         80.8060    9.1210   19.1700 N.3   286  ASN286     -0.1240
    101  CA        80.4350   10.0840   20.1930 C.3   286  ASN286      0.1653
    102  C         80.0020   11.4560   19.7300 C.2   286  ASN286      0.2266
    103  O         79.0670   12.0320   20.2860 O.2   286  ASN286     -0.2867
    104  CB        81.5600   10.2140   21.2010 C.3   286  ASN286      0.1155
    105  CG        81.5780    9.0680   22.1490 C.2   286  ASN286      0.2627
    106  OD1       80.8280    8.0990   21.9730 O.2   286  ASN286     -0.2716
    107  ND2       82.4180    9.1500   23.1620 N.am  286  ASN286     -0.0877
    108  N         76.3000   10.5850   18.5850 N.3   289  ALA289     -0.1231
    109  CA        75.4930    9.9210   19.5950 C.3   289  ALA289      0.1694
    110  C         75.2660   10.7590   20.8510 C.2   289  ALA289      0.2591
    111  O         74.2560   10.6070   21.5180 O.2   289  ALA289     -0.2718
    112  CB        76.1620    8.5890   19.9660 C.3   289  ALA289      0.0304
    113  N         76.2170   11.6310   21.1820 N.am  290  LEU290     -0.1980
    114  CA        76.0710   12.4510   22.3770 C.3   290  LEU290      0.1596
    115  C         75.6570   13.8810   22.0520 C.2   290  LEU290      0.2287
    116  O         75.5080   14.6820   22.9580 O.2   290  LEU290     -0.2864
    117  CB        77.3760   12.4420   23.2040 C.3   290  LEU290      0.0297
    118  CG        77.8700   11.0330   23.5570 C.3   290  LEU290      0.0022
    119  CD1       79.1820   11.1610   24.3570 C.3   290  LEU290      0.0001
    120  CD2       76.8080   10.2630   24.3600 C.3   290  LEU290      0.0001
    121  N         71.5990   -1.1570   21.1920 N.3   312  LYS312     -0.1231
    122  CA        72.0770   -0.2640   22.2570 C.3   312  LYS312      0.1693
    123  C         73.5510   -0.5250   22.4910 C.2   312  LYS312      0.2593
    124  O         73.9750   -1.6820   22.5950 O.2   312  LYS312     -0.2718
    125  CB        71.3210   -0.4800   23.5610 C.3   312  LYS312      0.0285
    126  CG        71.6710    0.5490   24.6540 C.3   312  LYS312      0.0035
    127  CD        71.0990    1.9480   24.2670 C.3   312  LYS312      0.0206
    128  CE        71.5590    3.0320   25.2630 C.3   312  LYS312      0.1093
    129  NZ        72.9650    3.4850   24.9940 N.3   312  LYS312     -0.1314
    130  N         74.3290    0.5570   22.5730 N.am  313  THR313     -0.1939
    131  CA        75.7600    0.4480   22.8550 C.3   313  THR313      0.2028
    132  C         75.9510    0.7290   24.3520 C.2   313  THR313      0.2643
    133  O         75.1150    1.3620   24.9710 O.2   313  THR313     -0.2714
    134  CB        76.5700    1.5260   22.1090 C.3   313  THR313      0.1808
    135  OG1       75.9990    2.8150   22.3760 O.3   313  THR313     -0.2208
    136  CG2       76.5600    1.2630   20.5980 C.3   313  THR313      0.0379
    137  N         77.0580    0.2770   24.9270 N.am  314  GLY314     -0.1939
    138  CA        77.2800    0.5860   26.3380 C.3   314  GLY314      0.2014
    139  C         78.7610    0.5080   26.6850 C.2   314  GLY314      0.2639
    140  O         79.5460   -0.2100   26.0360 O.2   314  GLY314     -0.2714
    141  N         79.1730    1.2440   27.7050 N.am  315  ALA315     -0.1963
    142  CA        80.5670    1.1580   28.1160 C.3   315  ALA315      0.1728
    143  C         80.6780    1.5300   29.5740 C.2   315  ALA315      0.2617
    144  O         79.7360    2.0950   30.1370 O.2   315  ALA315     -0.2715
    145  CB        81.4560    2.0950   27.2400 C.3   315  ALA315      0.0334
    146  N         81.7650    1.0970   30.2110 N.am  316  THR316     -0.1937
    147  CA        82.0920    1.5420   31.5830 C.3   316  THR316      0.2028
    148  C         83.5790    1.8450   31.4020 C.2   316  THR316      0.2642
    149  O         84.1210    1.6580   30.3220 O.2   316  THR316     -0.2714
    150  CB        81.9470    0.4940   32.7140 C.3   316  THR316      0.1808
    151  OG1       82.6990   -0.6770   32.3760 O.3   316  THR316     -0.2208
    152  CG2       80.4570    0.1860   33.0270 C.3   316  THR316      0.0379
    153  N         84.2740    2.3140   32.4280 N.am  317  GLY317     -0.1954
    154  CA        85.6720    2.6000   32.1680 C.3   317  GLY317      0.1869
    155  C         86.4420    1.4100   31.6150 C.2   317  GLY317      0.2309
    156  O         87.3440    1.5600   30.7650 O.2   317  GLY317     -0.2863
    157  N         86.9740   -0.9500   26.9290 N.3   340  ASN340     -0.1240
    158  CA        86.1160    0.0230   26.2660 C.3   340  ASN340      0.1653
    159  C         86.8440    0.3950   24.9630 C.2   340  ASN340      0.2266
    160  O         87.9860    0.8750   25.0010 O.2   340  ASN340     -0.2867
    161  CB        85.9650    1.2600   27.1470 C.3   340  ASN340      0.1155
    162  CG        85.0020    2.2950   26.5630 C.2   340  ASN340      0.2627
    163  OD1       84.4720    2.1340   25.4600 O.2   340  ASN340     -0.2716
    164  ND2       84.7710    3.3600   27.3150 N.am  340  ASN340     -0.0877
    165  N         82.8680    2.7620   19.6610 N.3   343  ASN343     -0.1240
    166  CA        81.5740    2.2270   19.2460 C.3   343  ASN343      0.1653
    167  C         81.4780    1.8650   17.7870 C.2   343  ASN343      0.2266
    168  O         80.9220    0.8220   17.4530 O.2   343  ASN343     -0.2867
    169  CB        80.4410    3.1990   19.5710 C.3   343  ASN343      0.1155
    170  CG        80.0360    3.1400   21.0210 C.2   343  ASN343      0.2627
    171  OD1       80.2500    2.1240   21.6990 O.2   343  ASN343     -0.2716
    172  ND2       79.4270    4.2230   21.5060 N.am  343  ASN343     -0.0877
@<TRIPOS>BOND
     1    94    95    1
     2    99    98    1
     3    98    95    1
     4    95    96    1
     5   168   167    2
     6    96    97    2
     7   167   166    1
     8   108   109    1
     9   100   101    1
    10   166   169    1
    11   166   165    1
    12   169   170    1
    13   109   112    1
    14   109   110    1
    15   102   101    1
    16   102   103    2
    17   101   104    1
    18   136   134    1
    19   110   113   am
    20   110   111    2
    21   170   172   am
    22   170   171    2
    23   113   114    1
    24   121   122    1
    25   104   105    1
    26   106   105    2
    27   115   114    1
    28   115   116    2
    29   134   135    1
    30   134   131    1
    31   105   107   am
    32   122   123    1
    33   122   125    1
    34   114   117    1
    35   123   130   am
    36   123   124    2
    37   130   131    1
    38   131   132    1
    39   117   118    1
    40   118   119    1
    41   118   120    1
    42   125   126    1
    43   127   126    1
    44   127   128    1
    45   132   137   am
    46   132   133    2
    47    52    53    1
    48    52    49    1
    49    48    49    1
    50   137   138    1
    51   159   160    2
    52   159   158    1
    53   129   128    1
    54    55    53   ar
    55    55    57   ar
    56    53    54   ar
    57    49    50    1
    58   163   162    2
    59    57    58   ar
    60   140   139    2
    61    54    56   ar
    62   158   157    1
    63   158   161    1
    64   138   139    1
    65    58    56   ar
    66    58    59    1
    67   162   161    1
    68   162   164   am
    69   139   141   am
    70    50    51    2
    71   145   142    1
    72   141   142    1
    73    22    21    1
    74   142   143    1
    75     5     6    1
    76     5     2    1
    77    23    21    1
    78     4     3    2
    79     3     2    1
    80    21    20    1
    81    13    14    1
    82    13    12    1
    83     2     1    1
    84    11    12    1
    85    11     8    1
    86     9    10    2
    87     9     8    1
    88    20    17    1
    89   143   144    2
    90   143   146   am
    91    14    15    1
    92     8     7    1
    93    17    16    1
    94    17    18    1
    95   146   147    1
    96   149   148    2
    97   156   155    2
    98    60    61    1
    99    18    19    2
   100    18    24   am
   101   148   147    1
   102   148   153   am
   103   147   150    1
   104   155   154    1
   105    32    30   am
   106    61    64    1
   107    61    62    1
   108   154   153    1
   109   151   150    1
   110    24    25    1
   111   150   152    1
   112    29    30    1
   113    29    28    1
   114    30    31    2
   115    62    63    2
   116    25    28    1
   117    25    26    1
   118    86    83    1
   119    86    87    1
   120    83    82    1
   121    83    84    1
   122    27    26    2
   123    26    33   am
   124    87    89   ar
   125    87    88   ar
   126    84    85    2
   127    89    91   ar
   128    33    34    1
   129    88    90   ar
   130    91    92   ar
   131    71    69    1
   132    69    66    1
   133    69    70    1
   134    34    35    1
   135    34    37    1
   136    90    92   ar
   137    92    93    1
   138    39    37    1
   139    36    35    2
   140    65    66    1
   141    66    67    1
   142    37    38    1
   143    46    45   ar
   144    67    72   am
   145    67    68    2
   146    72    73    1
   147    40    41    1
   148    45    44    1
   149    45    47   ar
   150    75    74    2
   151    44    41    1
   152    41    42    1
   153    77    76    1
   154    73    76    1
   155    73    74    1
   156    79    80    1
   157    79    78    1
   158    80    81    2
   159    42    43    2
