@<TRIPOS>MOLECULE
tmp/1i5zA01.pdb
 91 84 0 0 0
SMALL
GASTEIGER

@<TRIPOS>ATOM
      1  N         27.3220   48.0300   42.9140 N.3   121  VAL121     -0.1245
      2  CA        28.3070   48.7300   42.0900 C.3   121  VAL121      0.1561
      3  C         29.1650   47.8070   41.2420 C.2   121  VAL121      0.2260
      4  O         29.4050   48.0680   40.0570 O.2   121  VAL121     -0.2867
      5  CB        29.2300   49.6140   42.9670 C.3   121  VAL121      0.0252
      6  CG1       30.3720   50.2000   42.1170 C.3   121  VAL121      0.0019
      7  CG2       28.4080   50.7350   43.6000 C.3   121  VAL121      0.0019
      8  N         27.2400   46.3940   38.3280 N.3   124  GLU124     -0.1231
      9  CA        27.0730   47.3630   37.2460 C.3   124  GLU124      0.1699
     10  C         28.3450   47.3460   36.4120 C.2   124  GLU124      0.2592
     11  O         28.3020   47.4740   35.1840 O.2   124  GLU124     -0.2718
     12  CB        26.8510   48.7790   37.7860 C.3   124  GLU124      0.0402
     13  CG        25.5410   48.9760   38.5170 C.3   124  GLU124      0.1161
     14  CD        25.1530   50.4410   38.6420 C.2   124  GLU124      0.3649
     15  OE1       24.1190   50.7280   39.2880 O.co2 124  GLU124     -0.2457
     16  OE2       25.8740   51.3020   38.0890 O.co2 124  GLU124     -0.2457
     17  N         29.4800   47.1840   37.0890 N.am  125  LYS125     -0.1980
     18  CA        30.7740   47.1480   36.4170 C.3   125  LYS125      0.1596
     19  C         30.8450   45.9500   35.4660 C.2   125  LYS125      0.2287
     20  O         31.3770   46.0540   34.3570 O.2   125  LYS125     -0.2864
     21  CB        31.9010   47.0810   37.4560 C.3   125  LYS125      0.0298
     22  CG        33.2950   47.2390   36.8780 C.3   125  LYS125      0.0038
     23  CD        34.3480   47.3970   37.9730 C.3   125  LYS125      0.0206
     24  CE        34.1240   48.6440   38.8200 C.3   125  LYS125      0.1093
     25  NZ        34.2540   49.9100   38.0390 N.3   125  LYS125     -0.1314
     26  N         28.8840   46.8570   32.3320 N.3   128  ASN128     -0.1225
     27  CA        29.6090   47.7940   31.4800 C.3   128  ASN128      0.1785
     28  C         30.7000   47.1050   30.6630 C.2   128  ASN128      0.2597
     29  O         30.8300   47.3420   29.4580 O.2   128  ASN128     -0.2718
     30  CB        30.2340   48.9110   32.3200 C.3   128  ASN128      0.1169
     31  CG        29.1970   49.8050   32.9680 C.2   128  ASN128      0.2627
     32  OD1       28.0940   49.9730   32.4500 O.2   128  ASN128     -0.2716
     33  ND2       29.5540   50.4000   34.1010 N.am  128  ASN128     -0.0877
     34  N         31.4820   46.2550   31.3210 N.am  129  LEU129     -0.1980
     35  CA        32.5660   45.5320   30.6590 C.3   129  LEU129      0.1596
     36  C         32.0620   44.5360   29.6250 C.2   129  LEU129      0.2287
     37  O         32.7330   44.2630   28.6240 O.2   129  LEU129     -0.2864
     38  CB        33.4210   44.7920   31.6960 C.3   129  LEU129      0.0297
     39  CG        34.2330   45.6950   32.6270 C.3   129  LEU129      0.0022
     40  CD1       34.8840   44.8690   33.7230 C.3   129  LEU129      0.0001
     41  CD2       35.2930   46.4330   31.8060 C.3   129  LEU129      0.0001
     42  N         32.8180   52.6020   27.5500 N.3   137  ARG137     -0.1245
     43  CA        33.2690   52.3850   28.9210 C.3   137  ARG137      0.1563
     44  C         34.0420   53.6070   29.4080 C.2   137  ARG137      0.2260
     45  O         33.8770   54.0480   30.5470 O.2   137  ARG137     -0.2867
     46  CB        34.1500   51.1350   28.9890 C.3   137  ARG137      0.0307
     47  CG        33.4170   49.9160   29.5170 C.3   137  ARG137      0.0489
     48  CD        33.7460   48.6610   28.7420 C.3   137  ARG137      0.2205
     49  NE        35.1760   48.3860   28.6700 N.pl3 137  ARG137     -0.0865
     50  CZ        35.6830   47.2620   28.1770 C.cat 137  ARG137      0.5346
     51  NH1       34.8730   46.3160   27.7190 N.pl3 137  ARG137      0.1354
     52  NH2       36.9950   47.0770   28.1410 N.pl3 137  ARG137      0.1354
     53  N         31.4800   56.3570   30.0000 N.3   140  GLN140     -0.1231
     54  CA        30.7610   56.1500   31.2540 C.3   140  GLN140      0.1698
     55  C         31.6350   56.4630   32.4670 C.2   140  GLN140      0.2592
     56  O         31.1580   57.0170   33.4600 O.2   140  GLN140     -0.2718
     57  CB        30.2660   54.7040   31.3430 C.3   140  GLN140      0.0381
     58  CG        29.6020   54.3510   32.6690 C.3   140  GLN140      0.0905
     59  CD        28.2830   55.0740   32.8870 C.2   140  GLN140      0.2608
     60  OE1       27.7610   55.1100   34.0040 O.2   140  GLN140     -0.2717
     61  NE2       27.7300   55.6410   31.8180 N.am  140  GLN140     -0.0878
     62  N         32.9110   56.1040   32.3830 N.am  141  THR141     -0.1953
     63  CA        33.8420   56.3450   33.4790 C.3   141  THR141      0.1897
     64  C         34.0530   57.8350   33.7300 C.2   141  THR141      0.2313
     65  O         34.1090   58.2740   34.8780 O.2   141  THR141     -0.2863
     66  CB        35.2070   55.6880   33.2040 C.3   141  THR141      0.1794
     67  OG1       35.0480   54.2650   33.1430 O.3   141  THR141     -0.2208
     68  CG2       36.2010   56.0370   34.3070 C.3   141  THR141      0.0378
     69  N         31.2340   58.6370   36.2600 N.3   144  ASN144     -0.1240
     70  CA        31.2890   58.0580   37.5980 C.3   144  ASN144      0.1653
     71  C         32.3690   58.7380   38.4340 C.2   144  ASN144      0.2266
     72  O         32.3450   58.6800   39.6630 O.2   144  ASN144     -0.2867
     73  CB        31.5800   56.5570   37.5180 C.3   144  ASN144      0.1155
     74  CG        30.4940   55.7880   36.7950 C.2   144  ASN144      0.2627
     75  OD1       29.3230   55.8450   37.1690 O.2   144  ASN144     -0.2716
     76  ND2       30.8780   55.0570   35.7540 N.am  144  ASN144     -0.0877
     77  N         40.7720   51.2800   35.0700 N.3   170  ILE170     -0.1231
     78  CA        39.3490   51.2160   35.3440 C.3   170  ILE170      0.1692
     79  C         38.5620   50.5370   34.2220 C.2   170  ILE170      0.2591
     80  O         37.6550   49.7540   34.4940 O.2   170  ILE170     -0.2718
     81  CB        38.7770   52.6280   35.5960 C.3   170  ILE170      0.0266
     82  CG1       39.3930   53.2080   36.8720 C.3   170  ILE170      0.0019
     83  CG2       37.2500   52.5720   35.7050 C.3   170  ILE170      0.0020
     84  CD1       39.0360   54.6620   37.1300 C.3   170  ILE170      0.0001
     85  N         38.9160   50.8080   32.9670 N.am  171  VAL171     -0.1980
     86  CA        38.1830   50.2200   31.8440 C.3   171  VAL171      0.1595
     87  C         38.8090   48.9820   31.2180 C.2   171  VAL171      0.2287
     88  O         38.1690   48.3080   30.4040 O.2   171  VAL171     -0.2864
     89  CB        37.9400   51.2560   30.7160 C.3   171  VAL171      0.0276
     90  CG1       37.2770   52.4960   31.2910 C.3   171  VAL171      0.0022
     91  CG2       39.2520   51.6040   30.0160 C.3   171  VAL171      0.0022
@<TRIPOS>BOND
     1    42    43    1
     2    51    50    1
     3    52    50    1
     4    50    49    2
     5    37    36    2
     6    49    48    1
     7    48    47    1
     8    43    46    1
     9    43    44    1
    10    46    47    1
    11    44    45    2
    12    29    28    2
    13    36    35    1
    14    53    54    1
    15    91    89    1
    16    88    87    2
    17    35    34    1
    18    35    38    1
    19    28    34   am
    20    28    27    1
    21    89    90    1
    22    89    86    1
    23    87    86    1
    24    54    57    1
    25    54    55    1
    26    57    58    1
    27    27    30    1
    28    27    26    1
    29    38    39    1
    30    41    39    1
    31    61    59   am
    32    86    85    1
    33    30    31    1
    34    62    55   am
    35    62    63    1
    36    32    31    2
    37    55    56    2
    38    39    40    1
    39    58    59    1
    40    59    60    2
    41    85    79   am
    42    31    33   am
    43    67    66    1
    44    66    63    1
    45    66    68    1
    46    63    64    1
    47    64    65    2
    48    79    80    2
    49    79    78    1
    50    20    19    2
    51    77    78    1
    52    11    10    2
    53    78    81    1
    54    19    18    1
    55    81    83    1
    56    81    82    1
    57    76    74   am
    58    69    70    1
    59    10    17   am
    60    10     9    1
    61    18    17    1
    62    18    21    1
    63    74    75    2
    64    74    73    1
    65    82    84    1
    66    22    21    1
    67    22    23    1
    68     9    12    1
    69     9     8    1
    70    73    70    1
    71    70    71    1
    72    12    13    1
    73    23    24    1
    74    25    24    1
    75    16    14   ar
    76    71    72    2
    77    13    14    1
    78    14    15   ar
    79     4     3    2
    80     3     2    1
    81     2     1    1
    82     2     5    1
    83     6     5    1
    84     5     7    1
