@<TRIPOS>MOLECULE
tmp/1i6iA00.pdb
 177 169 0 0 0
SMALL
GASTEIGER

@<TRIPOS>ATOM
      1  N          6.7860   25.9530    6.3000 N.3     9  ARG9       -0.1245
      2  CA         7.0270   24.6350    5.7130 C.3     9  ARG9        0.1563
      3  C          6.1110   24.3980    4.5310 C.2     9  ARG9        0.2260
      4  O          4.9040   24.5930    4.6230 O.2     9  ARG9       -0.2867
      5  CB         6.7880   23.5510    6.7820 C.3     9  ARG9        0.0307
      6  CG         7.0370   22.0980    6.3110 C.3     9  ARG9        0.0489
      7  CD         6.6050   21.0800    7.3810 C.3     9  ARG9        0.2205
      8  NE         7.2530   19.7740    7.2120 N.pl3   9  ARG9       -0.0865
      9  CZ         6.9430   18.6780    7.9050 C.cat   9  ARG9        0.5346
     10  NH1        5.9800   18.7070    8.8180 N.pl3   9  ARG9        0.1354
     11  NH2        7.6280   17.5570    7.7100 N.pl3   9  ARG9        0.1354
     12  N          4.5630   21.7530    1.7480 N.3    11  ARG11      -0.1231
     13  CA         4.2670   20.3340    1.5480 C.3    11  ARG11       0.1679
     14  C          4.2340   19.9480    0.0740 C.2    11  ARG11       0.2434
     15  O          4.3390   20.8030   -0.8100 O.2    11  ARG11      -0.2733
     16  CB         2.9100   20.0030    2.1620 C.3    11  ARG11       0.0321
     17  CG         1.7670   20.7660    1.5150 C.3    11  ARG11       0.0489
     18  CD         0.3980   20.1280    1.7790 C.3    11  ARG11       0.2205
     19  NE        -0.7040   20.9790    1.3070 N.pl3  11  ARG11      -0.0865
     20  CZ        -0.9540   21.2780    0.0350 C.cat  11  ARG11       0.5346
     21  NH1       -0.1980   20.7980   -0.9360 N.pl3  11  ARG11       0.1354
     22  NH2       -1.9640   22.0810   -0.2690 N.pl3  11  ARG11       0.1354
     23  N          4.0870   18.6390   -0.2120 N.am   12  PRO12      -0.2729
     24  CA         4.0340   18.1770   -1.6020 C.3    12  PRO12       0.1401
     25  C          2.6590   18.5660   -2.1520 C.2    12  PRO12       0.2269
     26  O          1.7710   18.9190   -1.3880 O.2    12  PRO12      -0.2865
     27  CB         4.1720   16.6560   -1.4750 C.3    12  PRO12       0.0296
     28  CG         4.8710   16.4540   -0.1660 C.3    12  PRO12       0.0237
     29  CD         4.2110   17.4990    0.7160 C.3    12  PRO12       0.0939
     30  N         -1.1140   18.3390   -3.4150 N.3    14  ASN14      -0.1240
     31  CA        -2.1720   17.4750   -2.9220 C.3    14  ASN14       0.1653
     32  C         -3.0470   17.1000   -4.1110 C.2    14  ASN14       0.2266
     33  O         -2.7770   17.5060   -5.2400 O.2    14  ASN14      -0.2867
     34  CB        -2.9860   18.1480   -1.8090 C.3    14  ASN14       0.1155
     35  CG        -3.6430   19.4400   -2.2530 C.2    14  ASN14       0.2627
     36  OD1       -3.6640   19.7610   -3.4370 O.2    14  ASN14      -0.2716
     37  ND2       -4.2010   20.1790   -1.2920 N.am   14  ASN14      -0.0877
     38  N          9.6250   20.5360    2.3090 N.3    56  SER56      -0.1217
     39  CA         9.0820   19.1850    2.4300 C.3    56  SER56       0.1889
     40  C          8.1800   18.9340    1.2560 C.2    56  SER56       0.2288
     41  O          7.1500   18.2840    1.3750 O.2    56  SER56      -0.2866
     42  CB         8.2690   19.0660    3.7080 C.3    56  SER56       0.2089
     43  OG         9.0590   19.4370    4.8230 O.3    56  SER56      -0.2183
     44  N          9.0040   17.3300   -1.6760 N.3    58  THR58      -0.1218
     45  CA         9.3190   16.0620   -2.3330 C.3    58  THR58       0.1862
     46  C          8.9140   14.8530   -1.4650 C.2    58  THR58       0.2287
     47  O          7.7430   14.6960   -1.1430 O.2    58  THR58      -0.2866
     48  CB        10.8190   16.0500   -2.5880 C.3    58  THR58       0.1770
     49  OG1       11.4870   16.4900   -1.3950 O.3    58  THR58      -0.2211
     50  CG2       11.1670   17.0100   -3.7130 C.3    58  THR58       0.0375
     51  N         14.7010   16.6910    1.9990 N.3    65  TYR65      -0.1241
     52  CA        13.3530   16.6990    2.5490 C.3    65  TYR65       0.1605
     53  C         13.3630   16.9640    4.0450 C.2    65  TYR65       0.2264
     54  O         14.1430   16.3570    4.7890 O.2    65  TYR65      -0.2867
     55  CB        12.6600   15.3680    2.2340 C.3    65  TYR65       0.0534
     56  CG        11.2580   15.2390    2.7790 C.ar   65  TYR65      -0.0201
     57  CD1       11.0270   14.7270    4.0500 C.ar   65  TYR65      -0.0009
     58  CD2       10.1640   15.6380    2.0210 C.ar   65  TYR65      -0.0009
     59  CE1        9.7380   14.6140    4.5570 C.ar   65  TYR65       0.0417
     60  CE2        8.8630   15.5350    2.5170 C.ar   65  TYR65       0.0417
     61  CZ         8.6600   15.0240    3.7820 C.ar   65  TYR65       0.1957
     62  OH         7.3830   14.9420    4.2920 O.3    65  TYR65      -0.2866
     63  N         -6.2410   26.5550    4.5790 N.3    97  THR97      -0.1203
     64  CA        -6.8920   25.2590    4.6770 C.3    97  THR97       0.1994
     65  C         -6.1340   24.2860    3.7740 C.2    97  THR97       0.2618
     66  O         -5.8520   24.5980    2.6100 O.2    97  THR97      -0.2717
     67  CB        -8.3610   25.3640    4.2160 C.3    97  THR97       0.1784
     68  OG1       -9.0950   26.1570    5.1610 O.3    97  THR97      -0.2211
     69  CG2       -9.0050   23.9720    4.1030 C.3    97  THR97       0.0376
     70  N         -5.7670   23.1300    4.3280 N.am   98  GLY98      -0.1942
     71  CA        -5.0620   22.1180    3.5510 C.3    98  GLY98       0.2014
     72  C         -3.5730   22.3120    3.3350 C.2    98  GLY98       0.2639
     73  O         -2.9510   21.5220    2.6250 O.2    98  GLY98      -0.2714
     74  N         -2.9790   23.3350    3.9460 N.am   99  ALA99      -0.1963
     75  CA        -1.5490   23.5890    3.7350 C.3    99  ALA99       0.1728
     76  C         -0.6490   22.6260    4.4950 C.2    99  ALA99       0.2617
     77  O          0.5220   22.4820    4.1750 O.2    99  ALA99      -0.2715
     78  CB        -1.1990   25.0540    4.1110 C.3    99  ALA99       0.0334
     79  N         -1.1830   21.9890    5.5230 N.am  100  GLY100     -0.1940
     80  CA        -0.3710   21.0460    6.2650 C.3   100  GLY100      0.2014
     81  C         -0.2080   21.3050    7.7390 C.2   100  GLY100      0.2639
     82  O          0.7870   20.8900    8.3180 O.2   100  GLY100     -0.2714
     83  N         -1.1840   21.9640    8.3600 N.am  101  LYS101     -0.1963
     84  CA        -1.1330   22.2620    9.7880 C.3   101  LYS101      0.1728
     85  C         -1.2630   21.0210   10.6970 C.2   101  LYS101      0.2617
     86  O         -0.4780   20.8260   11.6260 O.2   101  LYS101     -0.2715
     87  CB        -2.2570   23.2510   10.1610 C.3   101  LYS101      0.0311
     88  CG        -2.1850   24.6120    9.4460 C.3   101  LYS101      0.0038
     89  CD        -3.3420   25.5290    9.8790 C.3   101  LYS101      0.0206
     90  CE        -4.6920   24.9980    9.4110 C.3   101  LYS101      0.1093
     91  NZ        -4.7930   24.9420    7.9400 N.3   101  LYS101     -0.1314
     92  N         -2.2840   20.2100   10.4530 N.am  102  SER102     -0.1936
     93  CA        -2.5020   19.0160   11.2750 C.3   102  SER102      0.2055
     94  C         -1.3790   17.9840   11.1030 C.2   102  SER102      0.2643
     95  O         -0.9520   17.3570   12.0700 O.2   102  SER102     -0.2714
     96  CB        -3.8630   18.4240   10.9280 C.3   102  SER102      0.2130
     97  OG        -4.8720   19.2410   11.4980 O.3   102  SER102     -0.2179
     98  N         -0.8950   17.8260    9.8790 N.am  103  TYR103     -0.1959
     99  CA         0.2050   16.8970    9.6210 C.3   103  TYR103      0.1771
    100  C          1.4310   17.3010   10.4570 C.2   103  TYR103      0.2620
    101  O          2.0870   16.4620   11.0880 O.2   103  TYR103     -0.2715
    102  CB         0.5830   16.9160    8.1480 C.3   103  TYR103      0.0574
    103  CG         1.6680   15.9120    7.8150 C.ar  103  TYR103     -0.0198
    104  CD1        1.3670   14.5560    7.6390 C.ar  103  TYR103     -0.0009
    105  CD2        3.0010   16.3090    7.7160 C.ar  103  TYR103     -0.0009
    106  CE1        2.3630   13.6280    7.3700 C.ar  103  TYR103      0.0417
    107  CE2        4.0080   15.3860    7.4530 C.ar  103  TYR103      0.0417
    108  CZ         3.6800   14.0420    7.2790 C.ar  103  TYR103      0.1957
    109  OH         4.6770   13.1320    7.0230 O.3   103  TYR103     -0.2866
    110  N          1.7400   18.5970   10.4650 N.am  104  THR104     -0.1951
    111  CA         2.8810   19.0890   11.2380 C.3   104  THR104      0.1897
    112  C          2.7130   18.9210   12.7310 C.2   104  THR104      0.2313
    113  O          3.6370   18.4900   13.4240 O.2   104  THR104     -0.2863
    114  CB         3.1460   20.5720   10.9170 C.3   104  THR104      0.1794
    115  OG1        3.6560   20.6650    9.5950 O.3   104  THR104     -0.2208
    116  CG2        4.1380   21.1890   11.8830 C.3   104  THR104      0.0378
    117  N          0.7260   11.4540   11.4240 N.3   108  LYS108     -0.1245
    118  CA        -0.0540   10.2230   11.3620 C.3   108  LYS108      0.1561
    119  C          0.5780    9.2110   12.3020 C.2   108  LYS108      0.2260
    120  O          1.6810    9.4250   12.8050 O.2   108  LYS108     -0.2867
    121  CB        -0.0790    9.7060    9.9280 C.3   108  LYS108      0.0271
    122  CG        -0.4930   10.7690    8.9280 C.3   108  LYS108      0.0035
    123  CD        -0.0090   10.4160    7.5380 C.3   108  LYS108      0.0206
    124  CE        -1.1430   10.4290    6.5380 C.3   108  LYS108      0.1093
    125  NZ        -0.6540   10.1430    5.1560 N.3   108  LYS108     -0.1314
    126  N        -16.4890   19.7880    4.0250 N.3   207  ASN207     -0.1240
    127  CA       -15.1070   19.3370    3.9000 C.3   207  ASN207      0.1653
    128  C        -15.1610   17.7970    3.6200 C.2   207  ASN207      0.2266
    129  O        -14.2110   17.0620    3.9150 O.2   207  ASN207     -0.2867
    130  CB       -14.3820   19.7070    5.2360 C.3   207  ASN207      0.1155
    131  CG       -13.0480   20.4750    5.0470 C.2   207  ASN207      0.2627
    132  OD1      -12.9200   21.6540    5.3760 O.2   207  ASN207     -0.2716
    133  ND2      -12.0530   19.7750    4.4890 N.am  207  ASN207     -0.0877
    134  N        -12.7090   16.5780    9.3220 N.3   211  THR211     -0.1203
    135  CA       -12.6400   17.5680   10.3970 C.3   211  THR211      0.1994
    136  C        -12.8700   18.9550    9.7920 C.2   211  THR211      0.2619
    137  O        -12.2790   19.3000    8.7630 O.2   211  THR211     -0.2717
    138  CB       -11.2630   17.5540   11.1010 C.3   211  THR211      0.1784
    139  OG1      -11.0390   16.2630   11.6850 O.3   211  THR211     -0.2211
    140  CG2      -11.2120   18.6220   12.2050 C.3   211  THR211      0.0376
    141  N        -13.7380   19.7390   10.4250 N.am  212  SER212     -0.1937
    142  CA       -14.0470   21.0780    9.9300 C.3   212  SER212      0.2055
    143  C        -12.7930   21.9400    9.8090 C.2   212  SER212      0.2643
    144  O        -11.9710   21.9970   10.7210 O.2   212  SER212     -0.2714
    145  CB       -15.0500   21.7690   10.8540 C.3   212  SER212      0.2130
    146  OG       -15.5200   22.9660   10.2600 O.3   212  SER212     -0.2179
    147  N        -12.6530   22.6020    8.6690 N.am  213  SER213     -0.1949
    148  CA       -11.5060   23.4610    8.4310 C.3   213  SER213      0.1924
    149  C        -11.5650   24.7040    9.3200 C.2   213  SER213      0.2314
    150  O        -10.5910   25.4530    9.4050 O.2   213  SER213     -0.2863
    151  CB       -11.4640   23.8870    6.9590 C.3   213  SER213      0.2116
    152  OG       -12.6350   24.6060    6.5970 O.3   213  SER213     -0.2180
    153  N         -3.2620   23.8260   17.0000 N.3   246  ASP246     -0.1225
    154  CA        -3.4890   23.5000   15.5960 C.3   246  ASP246      0.1805
    155  C         -4.6880   24.3390   15.1640 C.2   246  ASP246      0.2598
    156  O         -5.8340   23.9690   15.4230 O.2   246  ASP246     -0.2718
    157  CB        -3.7880   22.0010   15.4330 C.3   246  ASP246      0.1424
    158  CG        -4.0380   21.6060   13.9920 C.2   246  ASP246      0.3668
    159  OD1       -3.6710   22.3900   13.0910 O.co2 246  ASP246     -0.2456
    160  OD2       -4.6000   20.5100   13.7460 O.co2 246  ASP246     -0.2456
    161  N         -4.4100   25.4590   14.4930 N.am  247  LEU247     -0.1966
    162  CA        -5.4410   26.4160   14.0620 C.3   247  LEU247      0.1728
    163  C         -6.2930   26.0640   12.8610 C.2   247  LEU247      0.2616
    164  O         -5.9250   25.2430   12.0240 O.2   247  LEU247     -0.2715
    165  CB        -4.8040   27.7920   13.7860 C.3   247  LEU247      0.0311
    166  CG        -4.0680   28.4760   14.9380 C.3   247  LEU247      0.0022
    167  CD1       -3.2820   29.6510   14.3830 C.3   247  LEU247      0.0001
    168  CD2       -5.0510   28.9220   16.0240 C.3   247  LEU247      0.0001
    169  N         -7.4430   26.7280   12.7760 N.am  248  ALA248     -0.1963
    170  CA        -8.3530   26.5470   11.6540 C.3   248  ALA248      0.1728
    171  C         -7.6870   27.2050   10.4610 C.2   248  ALA248      0.2616
    172  O         -6.7310   27.9670   10.6310 O.2   248  ALA248     -0.2715
    173  CB        -9.6940   27.2120   11.9420 C.3   248  ALA248      0.0334
    174  N         -8.1800   26.8990    9.2640 N.am  249  GLY249     -0.1955
    175  CA        -7.6220   27.4620    8.0460 C.3   249  GLY249      0.1869
    176  C         -7.7570   28.9750    7.9630 C.2   249  GLY249      0.2309
    177  O         -8.8600   29.5200    8.0650 O.2   249  GLY249     -0.2863
@<TRIPOS>BOND
     1    33    32    2
     2    32    31    1
     3    50    48    1
     4    36    35    2
     5    30    31    1
     6    31    34    1
     7    48    45    1
     8    48    49    1
     9    45    44    1
    10    45    46    1
    11    35    34    1
    12    35    37   am
    13    25    24    1
    14    25    26    2
    15    24    27    1
    16    24    23    1
    17    27    28    1
    18    46    47    2
    19    21    20    1
    20    15    14    2
    21    22    20    1
    22    23    14   am
    23    23    29    1
    24    28    29    1
    25    20    19    2
    26    14    13    1
    27    40    41    2
    28    40    39    1
    29    19    18    1
    30    17    18    1
    31    17    16    1
    32    13    12    1
    33    13    16    1
    34    51    52    1
    35    58    60   ar
    36    58    56   ar
    37    55    52    1
    38    55    56    1
    39    38    39    1
    40    39    42    1
    41    60    61   ar
    42    52    53    1
    43    66    65    2
    44    73    72    2
    45    56    57   ar
    46    72    71    1
    47    72    74   am
    48    71    70    1
    49   128   127    1
    50   128   129    2
    51    42    43    1
    52    75    74    1
    53    75    78    1
    54    75    76    1
    55    65    70   am
    56    65    64    1
    57    61    62    1
    58    61    59   ar
    59   127   126    1
    60   127   130    1
    61    53    54    2
    62    57    59   ar
    63    69    67    1
    64    77    76    2
    65    67    64    1
    66    67    68    1
    67   133   131   am
    68    76    79   am
    69     3     4    2
    70     3     2    1
    71    63    64    1
    72   131   130    1
    73   131   132    2
    74   125   124    1
    75    79    80    1
    76     2     1    1
    77     2     5    1
    78    80    81    1
    79     6     5    1
    80     6     7    1
    81   124   123    1
    82   152   151    1
    83   151   148    1
    84   109   108    1
    85     8     7    1
    86     8     9    2
    87   108   106   ar
    88   108   107   ar
    89   106   104   ar
    90   107   105   ar
    91   123   122    1
    92   104   103   ar
    93    11     9    1
    94   105   103   ar
    95    81    82    2
    96    81    83   am
    97   103   102    1
    98     9    10    1
    99    91    90    1
   100   176   175    1
   101   176   177    2
   102   175   174    1
   103   102    99    1
   104    83    84    1
   105   148   147    1
   106   148   149    1
   107   147   143   am
   108   137   136    2
   109   122   121    1
   110   174   171   am
   111   149   150    2
   112   134   135    1
   113    90    89    1
   114    88    89    1
   115    88    87    1
   116   115   114    1
   117    99    98    1
   118    99   100    1
   119    84    87    1
   120    84    85    1
   121   136   135    1
   122   136   141   am
   123   143   142    1
   124   143   144    2
   125    98    94   am
   126   121   118    1
   127   142   141    1
   128   142   145    1
   129   146   145    1
   130   135   138    1
   131    92    85   am
   132    92    93    1
   133   100   110   am
   134   100   101    2
   135   171   172    2
   136   171   170    1
   137   110   111    1
   138    85    86    2
   139   114   111    1
   140   114   116    1
   141    96    93    1
   142    96    97    1
   143   138   139    1
   144   138   140    1
   145    94    93    1
   146    94    95    2
   147   111   112    1
   148   118   117    1
   149   118   119    1
   150   170   173    1
   151   170   169    1
   152   164   163    2
   153   119   120    2
   154   112   113    2
   155   169   163   am
   156   163   162    1
   157   159   158   ar
   158   160   158   ar
   159   165   162    1
   160   165   166    1
   161   158   157    1
   162   162   161    1
   163   167   166    1
   164   161   155   am
   165   166   168    1
   166   155   156    2
   167   155   154    1
   168   157   154    1
   169   154   153    1
