@<TRIPOS>MOLECULE
tmp/1i73A00.pdb
 134 133 0 0 0
SMALL
GASTEIGER

@<TRIPOS>ATOM
      1  N         21.8930   52.3630   63.2880 N.3     3  THR3       -0.1218
      2  CA        22.5720   53.5700   63.7440 C.3     3  THR3        0.1862
      3  C         22.7450   53.5700   65.2580 C.2     3  THR3        0.2287
      4  O         21.8570   53.1050   65.9860 O.2     3  THR3       -0.2866
      5  CB        21.8130   54.8350   63.3010 C.3     3  THR3        0.1770
      6  OG1       21.6240   54.8310   61.8790 O.3     3  THR3       -0.2211
      7  CG2       22.5760   56.1070   63.6270 C.3     3  THR3        0.0375
      8  N         21.9420   73.4660   56.6020 N.3    70  ASP70      -0.1239
      9  CA        21.9560   72.4520   57.6500 C.3    70  ASP70       0.1674
     10  C         23.3280   72.2100   58.2630 C.2    70  ASP70       0.2266
     11  O         23.4760   71.2310   59.0150 O.2    70  ASP70      -0.2867
     12  CB        21.3520   71.1390   57.1830 C.3    70  ASP70       0.1410
     13  CG        22.0510   70.4940   56.0120 C.2    70  ASP70       0.3668
     14  OD1       21.4680   69.5260   55.4820 O.co2  70  ASP70      -0.2456
     15  OD2       23.1530   70.9420   55.6280 O.co2  70  ASP70      -0.2456
     16  N         25.9120   71.0200   56.9270 N.3    72  SER72      -0.1203
     17  CA        26.7050   70.0010   56.2390 C.3    72  SER72       0.2005
     18  C         26.7200   70.3250   54.7450 C.2    72  SER72       0.2460
     19  O         25.8870   69.8360   53.9840 O.2    72  SER72      -0.2732
     20  CB        26.0770   68.6070   56.4530 C.3    72  SER72       0.2103
     21  OG        26.4190   68.1690   57.7540 O.3    72  SER72      -0.2182
     22  N         27.6280   71.1820   54.3070 N.am   73  PRO73      -0.2728
     23  CA        27.6050   71.6260   52.9150 C.3    73  PRO73       0.1401
     24  C         28.0060   70.5260   51.9420 C.2    73  PRO73       0.2269
     25  O         28.8360   69.6650   52.2290 O.2    73  PRO73      -0.2865
     26  CB        28.6130   72.7950   52.9020 C.3    73  PRO73       0.0296
     27  CG        29.5400   72.5340   54.0380 C.3    73  PRO73       0.0237
     28  CD        28.7040   71.8370   55.0780 C.3    73  PRO73       0.0939
     29  N         31.1020   63.8550   47.8800 N.3    80  ILE80      -0.1231
     30  CA        29.8400   63.5740   48.5390 C.3    80  ILE80       0.1692
     31  C         28.7020   63.7440   47.5270 C.2    80  ILE80       0.2592
     32  O         28.6070   64.7640   46.8490 O.2    80  ILE80      -0.2718
     33  CB        29.6090   64.5290   49.7270 C.3    80  ILE80       0.0266
     34  CG1       30.7200   64.5430   50.7700 C.3    80  ILE80       0.0019
     35  CG2       28.2560   64.2240   50.3780 C.3    80  ILE80       0.0020
     36  CD1       30.6860   65.7310   51.7240 C.3    80  ILE80       0.0001
     37  N         27.8300   62.7420   47.4300 N.am   81  LEU81      -0.1966
     38  CA        26.7560   62.8180   46.4380 C.3    81  LEU81       0.1728
     39  C         25.4190   63.2780   47.0250 C.2    81  LEU81       0.2616
     40  O         24.5400   63.7950   46.3400 O.2    81  LEU81      -0.2715
     41  CB        26.5480   61.4080   45.8550 C.3    81  LEU81       0.0311
     42  CG        27.7750   60.7110   45.2830 C.3    81  LEU81       0.0022
     43  CD1       27.4240   59.3230   44.7900 C.3    81  LEU81       0.0001
     44  CD2       28.3780   61.5910   44.2070 C.3    81  LEU81       0.0001
     45  N         25.1950   62.9800   48.2940 N.am   82  ALA82      -0.1963
     46  CA        23.9340   63.0860   49.0020 C.3    82  ALA82       0.1728
     47  C         24.1650   62.8020   50.4830 C.2    82  ALA82       0.2616
     48  O         25.1880   62.2420   50.8910 O.2    82  ALA82      -0.2715
     49  CB        22.9100   62.1110   48.4240 C.3    82  ALA82       0.0334
     50  N         23.1760   63.1590   51.3000 N.am   83  HIS83      -0.1959
     51  CA        23.1970   62.7560   52.7090 C.3    83  HIS83       0.1787
     52  C         21.7820   62.6960   53.2540 C.2    83  HIS83       0.2620
     53  O         20.8800   63.2790   52.6420 O.2    83  HIS83      -0.2715
     54  CB        24.1240   63.6650   53.5000 C.3    83  HIS83       0.0785
     55  CG        23.8080   65.1140   53.5570 C.ar   83  HIS83       0.0821
     56  ND1       24.8060   66.0560   53.5520 N.ar   83  HIS83      -0.2267
     57  CD2       22.6660   65.8360   53.6360 C.ar   83  HIS83       0.1154
     58  CE1       24.2890   67.2660   53.6640 C.ar   83  HIS83       0.1986
     59  NE2       22.9610   67.1690   53.6790 N.ar   83  HIS83      -0.2212
     60  N         21.5980   62.0500   54.3850 N.am   84  ALA84      -0.1963
     61  CA        20.2540   61.9290   54.9450 C.3    84  ALA84       0.1728
     62  C         20.3250   61.8530   56.4740 C.2    84  ALA84       0.2616
     63  O         21.3160   61.4290   57.0470 O.2    84  ALA84      -0.2715
     64  CB        19.5240   60.7020   54.4180 C.3    84  ALA84       0.0334
     65  N         19.2880   62.3570   57.1140 N.am   85  PHE85      -0.1974
     66  CA        19.2200   62.4540   58.5620 C.3    85  PHE85       0.1639
     67  C         18.4400   61.2620   59.1240 C.2    85  PHE85       0.2290
     68  O         17.4460   60.8210   58.5390 O.2    85  PHE85      -0.2864
     69  CB        18.5640   63.7550   58.9940 C.3    85  PHE85       0.0560
     70  CG        19.3820   64.9920   58.6220 C.ar   85  PHE85      -0.0200
     71  CD1       19.3360   65.5450   57.3520 C.ar   85  PHE85      -0.0042
     72  CD2       20.2000   65.5780   59.5730 C.ar   85  PHE85      -0.0042
     73  CE1       20.1560   66.6090   57.0300 C.ar   85  PHE85      -0.0003
     74  CE2       20.9810   66.6860   59.2690 C.ar   85  PHE85      -0.0003
     75  CZ        20.9410   67.2160   57.9940 C.ar   85  PHE85      -0.0000
     76  N         19.9950   54.1840   48.8830 N.3   118  HIS118     -0.1226
     77  CA        20.9770   54.2280   49.9650 C.3   118  HIS118      0.1752
     78  C         20.5820   55.2890   50.9900 C.2   118  HIS118      0.2595
     79  O         20.5920   55.0190   52.1990 O.2   118  HIS118     -0.2718
     80  CB        22.3870   54.4560   49.4090 C.3   118  HIS118      0.0759
     81  CG        23.4570   54.6620   50.4320 C.ar  118  HIS118      0.0818
     82  ND1       24.3450   53.6810   50.8070 N.ar  118  HIS118     -0.2268
     83  CD2       23.8350   55.7430   51.1530 C.ar  118  HIS118      0.1154
     84  CE1       25.2020   54.1300   51.7090 C.ar  118  HIS118      0.1986
     85  NE2       24.9140   55.3900   51.9330 N.ar  118  HIS118     -0.2212
     86  N         20.3450   56.5280   50.5580 N.am  119  GLU119     -0.1979
     87  CA        20.0470   57.5660   51.5470 C.3   119  GLU119      0.1602
     88  C         18.8280   57.2120   52.3770 C.2   119  GLU119      0.2287
     89  O         18.7560   57.5010   53.5660 O.2   119  GLU119     -0.2864
     90  CB        19.8600   58.9380   50.8840 C.3   119  GLU119      0.0415
     91  CG        21.0900   59.4050   50.1420 C.3   119  GLU119      0.1163
     92  CD        22.3820   59.3630   50.9280 C.2   119  GLU119      0.3649
     93  OE1       22.3460   59.6150   52.1500 O.co2 119  GLU119     -0.2457
     94  OE2       23.4780   59.1800   50.3450 O.co2 119  GLU119     -0.2457
     95  N         19.3740   55.3680   55.4610 N.3   122  HIS122     -0.1241
     96  CA        19.7130   56.2460   56.5850 C.3   122  HIS122      0.1621
     97  C         18.4680   56.9170   57.1590 C.2   122  HIS122      0.2264
     98  O         18.3010   57.0580   58.3820 O.2   122  HIS122     -0.2867
     99  CB        20.7440   57.2920   56.1830 C.3   122  HIS122      0.0745
    100  CG        22.0930   56.7660   55.8110 C.ar  122  HIS122      0.0817
    101  ND1       22.7810   55.8370   56.5410 N.ar  122  HIS122     -0.2268
    102  CD2       22.9290   57.1370   54.8090 C.ar  122  HIS122      0.1154
    103  CE1       23.9620   55.6150   55.9730 C.ar  122  HIS122      0.1986
    104  NE2       24.0960   56.4370   54.9390 N.ar  122  HIS122     -0.2212
    105  N         19.1370   53.0400   59.3040 N.3   126  LEU126     -0.1231
    106  CA        20.2820   52.1670   59.0710 C.3   126  LEU126      0.1693
    107  C         21.5820   52.9870   59.0270 C.2   126  LEU126      0.2592
    108  O         21.6450   54.0910   58.4820 O.2   126  LEU126     -0.2718
    109  CB        20.1700   51.3520   57.7860 C.3   126  LEU126      0.0284
    110  CG        19.0280   50.3410   57.6490 C.3   126  LEU126      0.0019
    111  CD1       19.1280   49.5430   56.3530 C.3   126  LEU126      0.0001
    112  CD2       18.9690   49.4000   58.8350 C.3   126  LEU126      0.0001
    113  N         22.6440   52.3250   59.4640 N.am  127  ALA127     -0.1966
    114  CA        24.0100   52.8080   59.3590 C.3   127  ALA127      0.1728
    115  C         24.6800   52.1580   58.1580 C.2   127  ALA127      0.2616
    116  O         24.1020   51.3130   57.4820 O.2   127  ALA127     -0.2715
    117  CB        24.7860   52.5120   60.6450 C.3   127  ALA127      0.0334
    118  N         25.9330   52.5060   57.9120 N.am  128  HIS128     -0.1973
    119  CA        26.7190   51.8340   56.8910 C.3   128  HIS128      0.1656
    120  C         27.0170   50.3870   57.2670 C.2   128  HIS128      0.2291
    121  O         27.1080   50.0020   58.4280 O.2   128  HIS128     -0.2864
    122  CB        28.0320   52.5960   56.6220 C.3   128  HIS128      0.0771
    123  CG        27.8020   53.8540   55.8410 C.ar  128  HIS128      0.0820
    124  ND1       28.5280   55.0030   55.9860 N.ar  128  HIS128     -0.2267
    125  CD2       26.8190   54.1570   54.9430 C.ar  128  HIS128      0.1154
    126  CE1       28.0280   55.9350   55.1930 C.ar  128  HIS128      0.1986
    127  NE2       27.0040   55.4520   54.5230 N.ar  128  HIS128     -0.2212
    128  N         29.5160   52.1190   52.2670 N.3   138  PRO138     -0.2116
    129  CA        29.6580   53.5840   52.2530 C.3   138  PRO138      0.1372
    130  C         29.8360   54.2330   50.8930 C.2   138  PRO138      0.2244
    131  O         29.5330   55.4330   50.7600 O.2   138  PRO138     -0.2868
    132  CB        30.8840   53.8250   53.1410 C.3   138  PRO138      0.0268
    133  CG        30.9250   52.6340   54.0380 C.3   138  PRO138      0.0207
    134  CD        30.4880   51.4870   53.1760 C.3   138  PRO138      0.0892
@<TRIPOS>BOND
     1    44    42    1
     2    43    42    1
     3    42    41    1
     4    41    38    1
     5    40    39    2
     6    38    39    1
     7    38    37    1
     8    32    31    2
     9    39    45   am
    10    37    31   am
    11    31    30    1
    12    29    30    1
    13    45    46    1
    14    49    46    1
    15    30    33    1
    16    76    77    1
    17    46    47    1
    18    80    77    1
    19    80    81    1
    20    33    35    1
    21    33    34    1
    22    77    78    1
    23    91    90    1
    24    91    92    1
    25    94    92   ar
    26    81    82   ar
    27    81    83   ar
    28    47    48    2
    29    47    50   am
    30    86    78   am
    31    86    87    1
    32   131   130    2
    33    34    36    1
    34    82    84   ar
    35    90    87    1
    36   130   129    1
    37    92    93   ar
    38    78    79    2
    39    83    85   ar
    40    50    51    1
    41    87    88    1
    42    84    85   ar
    43    24    25    2
    44    24    23    1
    45   129   128    1
    46   129   132    1
    47   128   134    1
    48    88    89    2
    49    53    52    2
    50    51    52    1
    51    51    54    1
    52    26    23    1
    53    26    27    1
    54    23    22    1
    55   132   133    1
    56   134   133    1
    57    52    60   am
    58    54    55    1
    59    56    55   ar
    60    56    58   ar
    61    55    57   ar
    62    57    59   ar
    63    58    59   ar
    64    19    18    2
    65    27    28    1
    66    22    18   am
    67    22    28    1
    68    60    61    1
    69    64    61    1
    70   127   125   ar
    71   127   126   ar
    72    18    17    1
    73   102   104   ar
    74   102   100   ar
    75   104   103   ar
    76   125   123   ar
    77    61    62    1
    78   126   124   ar
    79    95    96    1
    80    14    13   ar
    81    15    13   ar
    82   100    99    1
    83   100   101   ar
    84   123   124   ar
    85   123   122    1
    86   103   101   ar
    87    13    12    1
    88    99    96    1
    89    17    20    1
    90    17    16    1
    91   111   110    1
    92    20    21    1
    93    62    63    2
    94    62    65   am
    95    96    97    1
    96     8     9    1
    97   122   119    1
    98   119   120    1
    99   119   118    1
   100    73    71   ar
   101    73    75   ar
   102    65    66    1
   103    97    98    2
   104    12     9    1
   105   120   121    2
   106    71    70   ar
   107   116   115    2
   108   110   109    1
   109   110   112    1
   110     9    10    1
   111   109   106    1
   112   118   115   am
   113    75    74   ar
   114   115   114    1
   115    10    11    2
   116   108   107    2
   117    68    67    2
   118    66    69    1
   119    66    67    1
   120    70    69    1
   121    70    72   ar
   122   107   106    1
   123   107   113   am
   124   106   105    1
   125    74    72   ar
   126   114   113    1
   127   114   117    1
   128     6     5    1
   129     1     2    1
   130     5     7    1
   131     5     2    1
   132     2     3    1
   133     3     4    2
