@<TRIPOS>MOLECULE
tmp/1i75A00.pdb
 147 145 0 0 0
SMALL
GASTEIGER

@<TRIPOS>ATOM
      1  N         53.7610   54.7540   17.8090 N.3   100  TYR100     -0.1227
      2  CA        52.4690   55.4380   17.8460 C.3   100  TYR100      0.1736
      3  C         52.3810   56.8450   18.4150 C.2   100  TYR100      0.2595
      4  O         51.3000   57.4190   18.3700 O.2   100  TYR100     -0.2718
      5  CB        51.4650   54.5510   18.6150 C.3   100  TYR100      0.0548
      6  CG        51.2620   53.1240   18.0760 C.ar  100  TYR100     -0.0200
      7  CD1       51.0590   52.8920   16.7130 C.ar  100  TYR100     -0.0009
      8  CD2       51.2480   52.0370   18.9560 C.ar  100  TYR100     -0.0009
      9  CE1       50.8390   51.5980   16.2340 C.ar  100  TYR100      0.0417
     10  CE2       51.0210   50.7350   18.4890 C.ar  100  TYR100      0.0417
     11  CZ        50.8120   50.5240   17.1200 C.ar  100  TYR100      0.1957
     12  OH        50.5070   49.2480   16.6380 O.3   100  TYR100     -0.2866
     13  N         53.4150   57.4330   19.0090 N.am  101  TRP101     -0.1976
     14  CA        53.3260   58.7620   19.5870 C.3   101  TRP101      0.1640
     15  C         54.0780   59.7820   18.7490 C.2   101  TRP101      0.2290
     16  O         55.1940   60.1980   19.1100 O.2   101  TRP101     -0.2864
     17  CB        53.9100   58.7340   20.9870 C.3   101  TRP101      0.0576
     18  CG        53.2120   57.8540   22.0200 C.ar  101  TRP101      0.0006
     19  CD1       51.9440   57.3560   21.8720 C.ar  101  TRP101      0.0946
     20  CD2       53.7750   57.4800   23.2130 C.ar  101  TRP101      0.0152
     21  NE1       51.7010   56.6670   22.9810 N.ar  101  TRP101     -0.2442
     22  CE2       52.7600   56.7140   23.7940 C.ar  101  TRP101      0.0810
     23  CE3       54.9710   57.6680   23.8930 C.ar  101  TRP101      0.0012
     24  CZ2       52.9300   56.1310   25.0550 C.ar  101  TRP101      0.0191
     25  CZ3       55.1340   57.0870   25.1560 C.ar  101  TRP101      0.0001
     26  CH2       54.1240   56.3250   25.7350 C.ar  101  TRP101      0.0015
     27  N         46.2210   61.2490   16.1020 N.3   140  HIS140     -0.1241
     28  CA        46.6920   61.9030   17.3140 C.3   140  HIS140      0.1621
     29  C         48.1720   62.1590   17.2040 C.2   140  HIS140      0.2264
     30  O         48.7810   61.5940   16.2840 O.2   140  HIS140     -0.2867
     31  CB        46.4140   60.9840   18.5410 C.3   140  HIS140      0.0745
     32  CG        46.9890   59.5760   18.3940 C.ar  140  HIS140      0.0817
     33  ND1       46.4090   58.4480   17.9460 N.ar  140  HIS140     -0.2268
     34  CD2       48.2990   59.2840   18.6700 C.ar  140  HIS140      0.1154
     35  CE1       47.3320   57.5130   17.9420 C.ar  140  HIS140      0.1986
     36  NE2       48.4500   58.0360   18.3660 N.ar  140  HIS140     -0.2212
     37  N         34.1790   55.5200   24.9690 N.3   183  PHE183     -0.1241
     38  CA        33.8480   54.5530   23.9270 C.3   183  PHE183      0.1605
     39  C         32.3580   54.2250   23.8820 C.2   183  PHE183      0.2264
     40  O         31.9730   53.1740   23.3820 O.2   183  PHE183     -0.2867
     41  CB        34.6390   53.2420   24.1380 C.3   183  PHE183      0.0534
     42  CG        36.1400   53.4200   24.1790 C.ar  183  PHE183     -0.0203
     43  CD1       36.8140   53.3470   25.4080 C.ar  183  PHE183     -0.0042
     44  CD2       36.8310   53.6640   22.9890 C.ar  183  PHE183     -0.0042
     45  CE1       38.2070   53.5280   25.4300 C.ar  183  PHE183     -0.0003
     46  CE2       38.2210   53.8380   23.0390 C.ar  183  PHE183     -0.0003
     47  CZ        38.9100   53.7730   24.2490 C.ar  183  PHE183     -0.0000
     48  N         41.5740   59.4580   22.7270 N.3   194  LEU194     -0.1231
     49  CA        41.7620   58.0760   23.1440 C.3   194  LEU194      0.1693
     50  C         42.7410   58.1040   24.3170 C.2   194  LEU194      0.2592
     51  O         43.9140   58.4540   24.1290 O.2   194  LEU194     -0.2718
     52  CB        42.3820   57.2530   22.0290 C.3   194  LEU194      0.0284
     53  CG        41.5270   56.8340   20.8630 C.3   194  LEU194      0.0019
     54  CD1       42.3710   56.4570   19.6750 C.3   194  LEU194      0.0001
     55  CD2       40.6900   55.6600   21.3280 C.3   194  LEU194      0.0001
     56  N         42.3200   57.7520   25.5270 N.am  195  TYR195     -0.1976
     57  CA        43.1770   57.7280   26.7130 C.3   195  TYR195      0.1639
     58  C         43.7090   59.1420   26.9440 C.2   195  TYR195      0.2290
     59  O         42.8780   60.0340   27.1170 O.2   195  TYR195     -0.2864
     60  CB        44.2840   56.6710   26.4700 C.3   195  TYR195      0.0560
     61  CG        43.6620   55.3270   26.1250 C.ar  195  TYR195     -0.0198
     62  CD1       42.7580   54.7650   27.0390 C.ar  195  TYR195     -0.0009
     63  CD2       43.9320   54.6920   24.9100 C.ar  195  TYR195     -0.0009
     64  CE1       42.1090   53.5660   26.7430 C.ar  195  TYR195      0.0417
     65  CE2       43.2900   53.4890   24.6070 C.ar  195  TYR195      0.0417
     66  CZ        42.3790   52.9340   25.5260 C.ar  195  TYR195      0.1957
     67  OH        41.7140   51.7440   25.2460 O.3   195  TYR195     -0.2866
     68  N         45.9110   60.6180   24.6290 N.3   197  LEU197     -0.1245
     69  CA        46.5620   60.9830   23.3810 C.3   197  LEU197      0.1561
     70  C         45.9730   62.2620   22.8130 C.2   197  LEU197      0.2260
     71  O         44.7580   62.2800   22.6020 O.2   197  LEU197     -0.2867
     72  CB        46.3880   59.8060   22.3900 C.3   197  LEU197      0.0270
     73  CG        47.1270   58.5100   22.7340 C.3   197  LEU197      0.0019
     74  CD1       46.7350   57.4220   21.7590 C.3   197  LEU197      0.0001
     75  CD2       48.6170   58.7570   22.6900 C.3   197  LEU197      0.0001
     76  N         46.1250   53.3930   11.5000 N.3   229  ASP229     -0.1225
     77  CA        45.7310   53.1820   12.8710 C.3   229  ASP229      0.1805
     78  C         44.4440   53.9350   13.2050 C.2   229  ASP229      0.2597
     79  O         44.2450   55.0600   12.7530 O.2   229  ASP229     -0.2718
     80  CB        46.8730   53.6720   13.7560 C.3   229  ASP229      0.1424
     81  CG        46.5780   53.6630   15.2340 C.2   229  ASP229      0.3668
     82  OD1       46.4830   52.5530   15.7570 O.co2 229  ASP229     -0.2456
     83  OD2       46.4390   54.7520   15.8200 O.co2 229  ASP229     -0.2456
     84  N         43.6160   53.2770   14.0470 N.am  230  ALA230     -0.1979
     85  CA        42.4170   53.8080   14.7010 C.3   230  ALA230      0.1597
     86  C         41.3850   54.4190   13.7360 C.2   230  ALA230      0.2287
     87  O         40.8230   55.4940   13.9730 O.2   230  ALA230     -0.2864
     88  CB        42.8670   54.8490   15.7520 C.3   230  ALA230      0.0319
     89  N         38.1020   55.8970   14.9030 N.3   233  HIS233     -0.1241
     90  CA        38.2530   57.0660   15.7500 C.3   233  HIS233      0.1621
     91  C         38.5430   58.3520   15.0110 C.2   233  HIS233      0.2264
     92  O         38.9140   59.3990   15.6080 O.2   233  HIS233     -0.2867
     93  CB        39.3690   56.7570   16.7770 C.3   233  HIS233      0.0745
     94  CG        38.9070   55.6630   17.7140 C.ar  233  HIS233      0.0817
     95  ND1       37.8390   55.6600   18.4930 N.ar  233  HIS233     -0.2268
     96  CD2       39.4850   54.4220   17.7890 C.ar  233  HIS233      0.1154
     97  CE1       37.7390   54.4850   19.0170 C.ar  233  HIS233      0.1986
     98  NE2       38.7360   53.7750   18.5940 N.ar  233  HIS233     -0.2212
     99  N         42.7670   49.3550   10.8560 N.3   257  GLU257     -0.1245
    100  CA        42.4180   48.5030   11.9720 C.3   257  GLU257      0.1567
    101  C         41.1420   48.9940   12.6350 C.2   257  GLU257      0.2260
    102  O         41.1500   50.1130   13.1520 O.2   257  GLU257     -0.2867
    103  CB        43.5150   48.4900   13.0330 C.3   257  GLU257      0.0388
    104  CG        43.1510   47.5960   14.2060 C.3   257  GLU257      0.1160
    105  CD        44.2710   47.2420   15.1700 C.2   257  GLU257      0.3649
    106  OE1       45.4090   47.6850   15.0210 O.co2 257  GLU257     -0.2457
    107  OE2       43.9930   46.4710   16.0760 O.co2 257  GLU257     -0.2457
    108  N         38.8880   47.2250   15.4440 N.3   259  PHE259     -0.1241
    109  CA        38.8700   46.0200   16.2440 C.3   259  PHE259      0.1605
    110  C         37.4550   45.4460   16.3960 C.2   259  PHE259      0.2264
    111  O         36.4860   46.1910   16.5690 O.2   259  PHE259     -0.2867
    112  CB        39.4980   46.3640   17.6280 C.3   259  PHE259      0.0534
    113  CG        39.6230   45.1630   18.5450 C.ar  259  PHE259     -0.0203
    114  CD1       40.8140   44.4470   18.5330 C.ar  259  PHE259     -0.0042
    115  CD2       38.5380   44.7390   19.3370 C.ar  259  PHE259     -0.0042
    116  CE1       40.9190   43.2980   19.3190 C.ar  259  PHE259     -0.0003
    117  CE2       38.6550   43.5920   20.1180 C.ar  259  PHE259     -0.0003
    118  CZ        39.8450   42.8700   20.1030 C.ar  259  PHE259     -0.0000
    119  N         49.5200   42.5560   17.2180 N.3   327  HIS327     -0.1226
    120  CA        49.8240   43.3630   18.3870 C.3   327  HIS327      0.1752
    121  C         48.6800   43.7040   19.3280 C.2   327  HIS327      0.2596
    122  O         48.9060   44.2220   20.4120 O.2   327  HIS327     -0.2718
    123  CB        50.4520   44.6210   17.8960 C.3   327  HIS327      0.0759
    124  CG        49.5110   45.3470   16.9600 C.ar  327  HIS327      0.0818
    125  ND1       49.0440   44.9510   15.7880 N.ar  327  HIS327     -0.2268
    126  CD2       48.9310   46.5480   17.2540 C.ar  327  HIS327      0.1154
    127  CE1       48.1930   45.8540   15.3660 C.ar  327  HIS327      0.1986
    128  NE2       48.1360   46.8060   16.2600 N.ar  327  HIS327     -0.2212
    129  N         47.4370   43.4590   18.9360 N.am  328  ASP328     -0.1974
    130  CA        46.3070   43.7890   19.7700 C.3   328  ASP328      0.1709
    131  C         45.6030   42.5960   20.3920 C.2   328  ASP328      0.2293
    132  O         44.4800   42.6780   20.8830 O.2   328  ASP328     -0.2864
    133  CB        45.3700   44.6840   18.9020 C.3   328  ASP328      0.1436
    134  CG        45.7060   46.1800   19.0750 C.2   328  ASP328      0.3671
    135  OD1       46.4140   46.5570   20.0080 O.co2 328  ASP328     -0.2456
    136  OD2       45.2890   47.0270   18.2960 O.co2 328  ASP328     -0.2456
    137  N         54.5790   41.6490   22.5670 N.3   375  ARG375     -0.1245
    138  CA        55.5930   42.3050   21.7420 C.3   375  ARG375      0.1563
    139  C         56.9950   42.0680   22.3040 C.2   375  ARG375      0.2260
    140  O         57.8190   42.9660   22.3780 O.2   375  ARG375     -0.2867
    141  CB        55.3380   43.8230   21.6540 C.3   375  ARG375      0.0307
    142  CG        53.9050   44.1310   21.2550 C.3   375  ARG375      0.0489
    143  CD        53.4220   45.3920   21.9230 C.3   375  ARG375      0.2205
    144  NE        52.0210   45.6200   21.5980 N.pl3 375  ARG375     -0.0865
    145  CZ        51.4560   46.8330   21.5550 C.cat 375  ARG375      0.5346
    146  NH1       52.1650   47.9460   21.8290 N.pl3 375  ARG375      0.1354
    147  NH2       50.1770   46.9210   21.1670 N.pl3 375  ARG375      0.1354
@<TRIPOS>BOND
     1    99   100    1
     2    76    77    1
     3   100   101    1
     4   100   103    1
     5   101   102    2
     6    79    78    2
     7    77    78    1
     8    77    80    1
     9   103   104    1
    10    78    84   am
    11    86    87    2
    12    86    85    1
    13    80    81    1
    14    84    85    1
    15   104   105    1
    16    85    88    1
    17    89    90    1
    18    91    92    2
    19    91    90    1
    20   106   105   ar
    21   105   107   ar
    22    81    82   ar
    23    81    83   ar
    24   127   125   ar
    25   127   128   ar
    26   108   109    1
    27    90    93    1
    28   125   124   ar
    29    27    28    1
    30     9     7   ar
    31     9    11   ar
    32   109   110    1
    33   109   112    1
    34   128   126   ar
    35    30    29    2
    36   110   111    2
    37    12    11    1
    38     7     6   ar
    39    93    94    1
    40   124   126   ar
    41   124   123    1
    42    11    10   ar
    43    29    28    1
    44   119   120    1
    45    28    31    1
    46   112   113    1
    47    94    96   ar
    48    94    95   ar
    49    96    98   ar
    50     1     2    1
    51     2     3    1
    52     2     5    1
    53   123   120    1
    54    35    33   ar
    55    35    36   ar
    56    33    32   ar
    57     6     5    1
    58     6     8   ar
    59   136   134   ar
    60    36    34   ar
    61     4     3    2
    62   120   121    1
    63    32    31    1
    64    32    34   ar
    65     3    13   am
    66    10     8   ar
    67    95    97   ar
    68   114   113   ar
    69   114   116   ar
    70   113   115   ar
    71    98    97   ar
    72    15    16    2
    73    15    14    1
    74   133   134    1
    75   133   130    1
    76   129   121   am
    77   129   130    1
    78    13    14    1
    79   134   135   ar
    80   116   118   ar
    81   121   122    2
    82   115   117   ar
    83    14    17    1
    84    54    53    1
    85   130   131    1
    86   118   117   ar
    87   131   132    2
    88    53    55    1
    89    53    52    1
    90    17    18    1
    91   147   145    1
    92   142   141    1
    93   142   143    1
    94   145   144    2
    95   145   146    1
    96   144   143    1
    97   141   138    1
    98   138   139    1
    99   138   137    1
   100    74    73    1
   101    19    18   ar
   102    19    21   ar
   103    18    20   ar
   104    52    49    1
   105   139   140    2
   106    72    73    1
   107    72    69    1
   108    71    70    2
   109    75    73    1
   110    48    49    1
   111    70    69    1
   112    21    22   ar
   113    44    46   ar
   114    44    42   ar
   115    46    47   ar
   116    49    50    1
   117    20    22   ar
   118    20    23   ar
   119    69    68    1
   120    40    39    2
   121    22    24   ar
   122    39    38    1
   123    23    25   ar
   124    38    41    1
   125    38    37    1
   126    51    50    2
   127    41    42    1
   128    42    43   ar
   129    47    45   ar
   130    50    56   am
   131    65    63   ar
   132    65    66   ar
   133    63    61   ar
   134    24    26   ar
   135    25    26   ar
   136    67    66    1
   137    43    45   ar
   138    66    64   ar
   139    56    57    1
   140    61    60    1
   141    61    62   ar
   142    60    57    1
   143    57    58    1
   144    64    62   ar
   145    58    59    2
