@<TRIPOS>MOLECULE
tmp/1i78B00.pdb
 93 91 0 0 0
SMALL
GASTEIGER

@<TRIPOS>ATOM
      1  N         43.1010   41.8990   23.7650 N.3     6  ILE6       -0.1245
      2  CA        41.8290   42.3200   24.3270 C.3     6  ILE6        0.1561
      3  C         40.9950   41.0810   24.6370 C.2     6  ILE6        0.2260
      4  O         40.8610   40.1810   23.8100 O.2     6  ILE6       -0.2867
      5  CB        41.0280   43.2280   23.3560 C.3     6  ILE6        0.0252
      6  CG1       41.7330   44.5760   23.1970 C.3     6  ILE6        0.0019
      7  CG2       39.6170   43.4540   23.8950 C.3     6  ILE6        0.0019
      8  CD1       41.0540   45.5250   22.2270 C.3     6  ILE6        0.0001
      9  N         36.6790   43.4050   31.2410 N.3    42  ILE42      -0.1231
     10  CA        37.3410   43.4920   29.9520 C.3    42  ILE42       0.1692
     11  C         38.8360   43.6460   30.2860 C.2    42  ILE42       0.2592
     12  O         39.1890   44.3240   31.2570 O.2    42  ILE42      -0.2718
     13  CB        36.8250   44.7060   29.1250 C.3    42  ILE42       0.0266
     14  CG1       37.5740   44.7830   27.7950 C.3    42  ILE42       0.0019
     15  CG2       37.0040   46.0160   29.9120 C.3    42  ILE42       0.0020
     16  CD1       37.0390   45.8480   26.8490 C.3    42  ILE42       0.0001
     17  N         39.7090   42.9880   29.5240 N.am   43  LYS43      -0.1966
     18  CA        41.1510   43.0800   29.7740 C.3    43  LYS43       0.1728
     19  C         41.8970   43.5120   28.5230 C.2    43  LYS43       0.2616
     20  O         41.5330   43.1270   27.4110 O.2    43  LYS43      -0.2715
     21  CB        41.7330   41.7360   30.2190 C.3    43  LYS43       0.0311
     22  CG        41.0380   41.0630   31.3830 C.3    43  LYS43       0.0038
     23  CD        41.5910   39.6500   31.6210 C.3    43  LYS43       0.0206
     24  CE        42.9920   39.6580   32.2450 C.3    43  LYS43       0.1093
     25  NZ        43.9980   40.4310   31.4470 N.3    43  LYS43      -0.1314
     26  N         42.9440   44.3040   28.7250 N.am   44  GLY44      -0.1955
     27  CA        43.7740   44.7800   27.6360 C.3    44  GLY44       0.1869
     28  C         45.2360   44.5930   28.0220 C.2    44  GLY44       0.2309
     29  O         45.6120   44.7130   29.2020 O.2    44  GLY44      -0.2863
     30  N         46.0590   45.4120   32.0580 N.3    60  GLY60      -0.1210
     31  CA        45.0830   45.9380   32.9840 C.3    60  GLY60       0.1956
     32  C         43.6860   45.5000   32.6070 C.2    60  GLY60       0.2612
     33  O         43.4030   45.2690   31.4360 O.2    60  GLY60      -0.2717
     34  N         42.8270   45.3630   33.6110 N.am   61  TRP61      -0.1962
     35  CA        41.4390   44.9770   33.4000 C.3    61  TRP61       0.1771
     36  C         40.5300   45.7810   34.3250 C.2    61  TRP61       0.2620
     37  O         40.9820   46.3640   35.3190 O.2    61  TRP61      -0.2715
     38  CB        41.2220   43.4680   33.6400 C.3    61  TRP61       0.0590
     39  CG        41.6430   42.9570   34.9920 C.ar   61  TRP61       0.0006
     40  CD1       42.8210   42.3250   35.3040 C.ar   61  TRP61       0.0946
     41  CD2       40.8990   43.0370   36.2140 C.ar   61  TRP61       0.0152
     42  NE1       42.8530   42.0090   36.6400 N.ar   61  TRP61      -0.2442
     43  CE2       41.6890   42.4330   37.2260 C.ar   61  TRP61       0.0810
     44  CE3       39.6430   43.5600   36.5570 C.ar   61  TRP61       0.0012
     45  CZ2       41.2610   42.3390   38.5610 C.ar   61  TRP61       0.0191
     46  CZ3       39.2150   43.4660   37.8890 C.ar   61  TRP61       0.0001
     47  CH2       40.0240   42.8600   38.8710 C.ar   61  TRP61       0.0015
     48  N         39.2480   45.8100   33.9850 N.am   62  THR62      -0.1951
     49  CA        38.2770   46.5330   34.7860 C.3    62  THR62       0.1897
     50  C         36.9110   45.8710   34.6880 C.2    62  THR62       0.2313
     51  O         36.5320   45.3640   33.6330 O.2    62  THR62      -0.2863
     52  CB        38.1660   48.0130   34.3120 C.3    62  THR62       0.1794
     53  OG1       37.2070   48.7080   35.1120 O.3    62  THR62      -0.2208
     54  CG2       37.7390   48.0890   32.8550 C.3    62  THR62       0.0378
     55  N         39.4370   46.7710   39.5670 N.3   100  ASN100     -0.1225
     56  CA        40.3490   46.9420   38.4410 C.3   100  ASN100      0.1785
     57  C         41.7630   46.5880   38.8570 C.2   100  ASN100      0.2597
     58  O         42.0550   46.4160   40.0460 O.2   100  ASN100     -0.2718
     59  CB        40.3330   48.3860   37.9240 C.3   100  ASN100      0.1169
     60  CG        40.5630   49.3990   39.0280 C.2   100  ASN100      0.2627
     61  OD1       39.6230   49.9800   39.5490 O.2   100  ASN100     -0.2716
     62  ND2       41.8130   49.5980   39.4030 N.am  100  ASN100     -0.0877
     63  N         42.6370   46.4960   37.8660 N.am  101  GLU101     -0.1965
     64  CA        44.0280   46.1780   38.1110 C.3   101  GLU101      0.1733
     65  C         44.8580   46.6200   36.9260 C.2   101  GLU101      0.2616
     66  O         44.3730   46.6250   35.8060 O.2   101  GLU101     -0.2715
     67  CB        44.2020   44.6660   38.3100 C.3   101  GLU101      0.0429
     68  CG        45.5990   44.2630   38.7370 C.3   101  GLU101      0.1163
     69  CD        45.9060   42.7880   38.4790 C.2   101  GLU101      0.3649
     70  OE1       45.8890   41.9730   39.4380 O.co2 101  GLU101     -0.2457
     71  OE2       46.1690   42.4470   37.3020 O.co2 101  GLU101     -0.2457
     72  N         46.0960   47.0210   37.1790 N.am  102  PHE102     -0.1974
     73  CA        46.9980   47.3840   36.0940 C.3   102  PHE102      0.1639
     74  C         48.3310   46.6980   36.4200 C.2   102  PHE102      0.2290
     75  O         48.6590   46.4940   37.5930 O.2   102  PHE102     -0.2864
     76  CB        47.1200   48.9100   35.9480 C.3   102  PHE102      0.0560
     77  CG        47.9450   49.5760   37.0100 C.ar  102  PHE102     -0.0200
     78  CD1       49.3390   49.5610   36.9430 C.ar  102  PHE102     -0.0042
     79  CD2       47.3300   50.2580   38.0600 C.ar  102  PHE102     -0.0042
     80  CE1       50.1060   50.2210   37.9090 C.ar  102  PHE102     -0.0003
     81  CE2       48.0870   50.9200   39.0290 C.ar  102  PHE102     -0.0003
     82  CZ        49.4740   50.9030   38.9560 C.ar  102  PHE102     -0.0000
     83  N         42.3080   47.2690   42.8560 N.3   128  ARG128     -0.1245
     84  CA        41.3740   47.9250   43.7630 C.3   128  ARG128      0.1563
     85  C         40.0070   47.2580   43.7130 C.2   128  ARG128      0.2260
     86  O         39.5890   46.7470   42.6740 O.2   128  ARG128     -0.2867
     87  CB        41.2160   49.3940   43.3800 C.3   128  ARG128      0.0307
     88  CG        42.4450   50.2490   43.6180 C.3   128  ARG128      0.0489
     89  CD        42.2760   51.6020   42.9750 C.3   128  ARG128      0.2205
     90  NE        42.8110   52.6890   43.7970 N.pl3 128  ARG128     -0.0865
     91  CZ        44.0900   53.0520   43.8310 C.cat 128  ARG128      0.5346
     92  NH1       44.9930   52.4160   43.0830 N.pl3 128  ARG128      0.1354
     93  NH2       44.4680   54.0580   44.6140 N.pl3 128  ARG128      0.1354
@<TRIPOS>BOND
     1     8     6    1
     2     6     5    1
     3     5     7    1
     4     5     2    1
     5     1     2    1
     6     4     3    2
     7     2     3    1
     8    16    14    1
     9    20    19    2
    10    27    28    1
    11    27    26    1
    12    14    13    1
    13    28    29    2
    14    19    26   am
    15    19    18    1
    16    13    15    1
    17    13    10    1
    18    17    18    1
    19    17    11   am
    20    18    21    1
    21    10    11    1
    22    10     9    1
    23    21    22    1
    24    11    12    2
    25    22    23    1
    26    33    32    2
    27    25    24    1
    28    23    24    1
    29    30    31    1
    30    32    31    1
    31    32    34   am
    32    54    52    1
    33    35    34    1
    34    35    38    1
    35    35    36    1
    36    51    50    2
    37    38    39    1
    38    48    36   am
    39    48    49    1
    40    52    49    1
    41    52    53    1
    42    36    37    2
    43    50    49    1
    44    39    40   ar
    45    39    41   ar
    46    40    42   ar
    47    66    65    2
    48    76    73    1
    49    76    77    1
    50    73    74    1
    51    73    72    1
    52    41    44   ar
    53    41    43   ar
    54    74    75    2
    55    44    46   ar
    56    42    43   ar
    57    65    72   am
    58    65    64    1
    59    78    77   ar
    60    78    80   ar
    61    77    79   ar
    62    43    45   ar
    63    71    69   ar
    64    63    64    1
    65    63    57   am
    66    46    47   ar
    67    80    82   ar
    68    59    56    1
    69    59    60    1
    70    79    81   ar
    71    64    67    1
    72    67    68    1
    73    56    57    1
    74    56    55    1
    75    69    68    1
    76    69    70   ar
    77    45    47   ar
    78    57    58    2
    79    82    81   ar
    80    60    62   am
    81    60    61    2
    82    86    85    2
    83    83    84    1
    84    89    88    1
    85    89    90    1
    86    92    91    1
    87    87    88    1
    88    87    84    1
    89    85    84    1
    90    90    91    2
    91    91    93    1
