@<TRIPOS>MOLECULE
tmp/1i78B03.pdb
 80 77 0 0 0
SMALL
GASTEIGER

@<TRIPOS>ATOM
      1  N         49.7710   26.7790   23.7560 N.3   184  LEU184     -0.1245
      2  CA        49.5270   26.7610   25.1840 C.3   184  LEU184      0.1561
      3  C         50.4060   27.7770   25.8920 C.2   184  LEU184      0.2260
      4  O         51.4700   28.1500   25.3940 O.2   184  LEU184     -0.2867
      5  CB        49.8280   25.3830   25.7510 C.3   184  LEU184      0.0270
      6  CG        48.7240   24.3460   25.7420 C.3   184  LEU184      0.0019
      7  CD1       49.2520   23.0700   26.3880 C.3   184  LEU184      0.0001
      8  CD2       47.5310   24.8770   26.5160 C.3   184  LEU184      0.0001
      9  N         46.6220   29.8440   32.8610 N.3   225  VAL225     -0.1231
     10  CA        46.8880   28.9940   31.7130 C.3   225  VAL225      0.1692
     11  C         45.9190   29.4220   30.6290 C.2   225  VAL225      0.2592
     12  O         44.7780   29.8100   30.9130 O.2   225  VAL225     -0.2718
     13  CB        46.6400   27.4990   32.0200 C.3   225  VAL225      0.0266
     14  CG1       47.4740   27.0670   33.2150 C.3   225  VAL225      0.0020
     15  CG2       45.1630   27.2620   32.3110 C.3   225  VAL225      0.0020
     16  N         46.3750   29.3470   29.3870 N.am  226  ASN226     -0.1960
     17  CA        45.5400   29.7190   28.2610 C.3   226  ASN226      0.1819
     18  C         45.7950   28.7850   27.0830 C.2   226  ASN226      0.2621
     19  O         46.8710   28.1930   26.9740 O.2   226  ASN226     -0.2715
     20  CB        45.8530   31.1510   27.8440 C.3   226  ASN226      0.1195
     21  CG        47.3290   31.3650   27.5960 C.2   226  ASN226      0.2630
     22  OD1       48.0300   31.9030   28.4400 O.2   226  ASN226     -0.2716
     23  ND2       47.8100   30.9230   26.4430 N.am  226  ASN226     -0.0877
     24  N         44.7960   28.6600   26.2120 N.am  227  ALA227     -0.1977
     25  CA        44.8940   27.8280   25.0160 C.3   227  ALA227      0.1597
     26  C         44.1090   28.5040   23.8930 C.2   227  ALA227      0.2287
     27  O         43.0460   29.0750   24.1360 O.2   227  ALA227     -0.2864
     28  CB        44.3370   26.4340   25.2850 C.3   227  ALA227      0.0319
     29  N         41.3420   31.1430   25.1290 N.3   239  VAL239     -0.1231
     30  CA        40.5450   31.0880   26.3440 C.3   239  VAL239      0.1692
     31  C         41.5650   31.0860   27.4830 C.2   239  VAL239      0.2592
     32  O         42.7080   30.6760   27.2840 O.2   239  VAL239     -0.2718
     33  CB        39.6850   29.8030   26.3730 C.3   239  VAL239      0.0266
     34  CG1       38.8360   29.7600   27.6300 C.3   239  VAL239      0.0020
     35  CG2       38.7860   29.7610   25.1400 C.3   239  VAL239      0.0020
     36  N         41.1760   31.5520   28.6660 N.am  240  GLU240     -0.1966
     37  CA        42.1190   31.6090   29.7720 C.3   240  GLU240      0.1733
     38  C         41.4920   31.5680   31.1580 C.2   240  GLU240      0.2616
     39  O         40.4980   32.2370   31.4290 O.2   240  GLU240     -0.2715
     40  CB        42.9790   32.8770   29.6550 C.3   240  GLU240      0.0429
     41  CG        44.1190   32.9500   30.6630 C.3   240  GLU240      0.1163
     42  CD        44.8880   34.2660   30.6110 C.2   240  GLU240      0.3649
     43  OE1       45.3920   34.6370   29.5230 O.co2 240  GLU240     -0.2457
     44  OE2       44.9940   34.9300   31.6700 O.co2 240  GLU240     -0.2457
     45  N         42.0940   30.7750   32.0340 N.am  241  GLY241     -0.1955
     46  CA        41.6230   30.6730   33.3990 C.3   241  GLY241      0.1869
     47  C         42.7420   31.1920   34.2810 C.2   241  GLY241      0.2309
     48  O         43.9180   30.9960   33.9690 O.2   241  GLY241     -0.2863
     49  N         43.7850   32.0790   38.6250 N.3   243  TRP243     -0.1241
     50  CA        43.4400   32.0060   40.0280 C.3   243  TRP243      0.1605
     51  C         44.5230   32.7490   40.8100 C.2   243  TRP243      0.2264
     52  O         45.6970   32.7040   40.4420 O.2   243  TRP243     -0.2867
     53  CB        43.3860   30.5380   40.4550 C.3   243  TRP243      0.0550
     54  CG        42.4010   29.6980   39.6540 C.ar  243  TRP243      0.0003
     55  CD1       41.0890   29.4430   39.9700 C.ar  243  TRP243      0.0946
     56  CD2       42.6390   29.0370   38.3900 C.ar  243  TRP243      0.0152
     57  NE1       40.5000   28.6710   38.9870 N.ar  243  TRP243     -0.2442
     58  CE2       41.4240   28.4080   38.0090 C.ar  243  TRP243      0.0810
     59  CE3       43.7580   28.9190   37.5440 C.ar  243  TRP243      0.0012
     60  CZ2       41.2960   27.6720   36.8200 C.ar  243  TRP243      0.0191
     61  CZ3       43.6270   28.1830   36.3570 C.ar  243  TRP243      0.0001
     62  CH2       42.4030   27.5710   36.0110 C.ar  243  TRP243      0.0015
     63  N         39.0480   34.3230   40.9480 N.3   277  PHE277     -0.1241
     64  CA        39.1160   33.4120   39.8210 C.3   277  PHE277      0.1605
     65  C         38.7000   34.2490   38.6220 C.2   277  PHE277      0.2264
     66  O         37.7070   34.9840   38.6880 O.2   277  PHE277     -0.2867
     67  CB        38.1430   32.2420   39.9820 C.3   277  PHE277      0.0534
     68  CG        38.0320   31.3760   38.7510 C.ar  277  PHE277     -0.0203
     69  CD1       36.8770   30.6290   38.5110 C.ar  277  PHE277     -0.0042
     70  CD2       39.0750   31.3180   37.8180 C.ar  277  PHE277     -0.0042
     71  CE1       36.7580   29.8410   37.3620 C.ar  277  PHE277     -0.0003
     72  CE2       38.9720   30.5380   36.6710 C.ar  277  PHE277     -0.0003
     73  CZ        37.8100   29.7960   36.4390 C.ar  277  PHE277     -0.0000
     74  N         37.9240   33.9840   34.4520 N.3   279  THR279     -0.1218
     75  CA        37.7240   33.1580   33.2660 C.3   279  THR279      0.1862
     76  C         37.6050   34.1370   32.1270 C.2   279  THR279      0.2287
     77  O         36.8080   35.0660   32.1880 O.2   279  THR279     -0.2866
     78  CB        36.4420   32.3530   33.3590 C.3   279  THR279      0.1770
     79  OG1       36.2980   31.8580   34.6910 O.3   279  THR279     -0.2211
     80  CG2       36.4890   31.1780   32.4170 C.3   279  THR279      0.0375
@<TRIPOS>BOND
     1     1     2    1
     2    26    27    2
     3    26    25    1
     4    25    28    1
     5    25    24    1
     6    29    30    1
     7    35    33    1
     8     2     5    1
     9     2     3    1
    10     4     3    2
    11     6     5    1
    12     6     7    1
    13     6     8    1
    14    24    18   am
    15    30    33    1
    16    30    31    1
    17    33    34    1
    18    23    21   am
    19    19    18    2
    20    18    17    1
    21    32    31    2
    22    31    36   am
    23    21    20    1
    24    21    22    2
    25    20    17    1
    26    17    16    1
    27    36    37    1
    28    16    11   am
    29    43    42   ar
    30    40    37    1
    31    40    41    1
    32    37    38    1
    33    42    41    1
    34    42    44   ar
    35    11    12    2
    36    11    10    1
    37    38    39    2
    38    38    45   am
    39    10    13    1
    40    10     9    1
    41    13    15    1
    42    13    14    1
    43    45    46    1
    44    76    77    2
    45    76    75    1
    46    80    78    1
    47    75    78    1
    48    75    74    1
    49    78    79    1
    50    46    47    1
    51    48    47    2
    52    62    61   ar
    53    62    60   ar
    54    61    59   ar
    55    73    72   ar
    56    73    71   ar
    57    72    70   ar
    58    60    58   ar
    59    71    69   ar
    60    59    56   ar
    61    70    68   ar
    62    58    56   ar
    63    58    57   ar
    64    56    54   ar
    65    69    68   ar
    66    65    66    2
    67    65    64    1
    68    49    50    1
    69    68    67    1
    70    57    55   ar
    71    54    55   ar
    72    54    53    1
    73    64    67    1
    74    64    63    1
    75    50    53    1
    76    50    51    1
    77    52    51    2
