@<TRIPOS>MOLECULE
tmp/1i7aA00.pdb
 92 91 0 0 0
SMALL
GASTEIGER

@<TRIPOS>ATOM
      1  N         15.6490   10.1310   44.6070 N.3    10  HIS10      -0.1241
      2  CA        14.5780   10.1620   45.5820 C.3    10  HIS10       0.1621
      3  C         13.8910    8.7950   45.5130 C.2    10  HIS10       0.2264
      4  O         13.6450    8.2390   44.4210 O.2    10  HIS10      -0.2867
      5  CB        13.5880   11.2870   45.2660 C.3    10  HIS10       0.0745
      6  CG        14.1060   12.6500   45.6060 C.ar   10  HIS10       0.0817
      7  ND1       15.0240   13.3160   44.8220 N.ar   10  HIS10      -0.2268
      8  CD2       13.8630   13.4530   46.6690 C.ar   10  HIS10       0.1154
      9  CE1       15.3250   14.4730   45.3870 C.ar   10  HIS10       0.1986
     10  NE2       14.6340   14.5790   46.5080 N.ar   10  HIS10      -0.2212
     11  N         10.6900    6.2350   46.4840 N.3    12  PHE12      -0.1241
     12  CA         9.2680    6.1600   46.7580 C.3    12  PHE12       0.1605
     13  C          8.8620    4.6940   46.8540 C.2    12  PHE12       0.2264
     14  O          9.5490    3.8290   46.3190 O.2    12  PHE12      -0.2867
     15  CB         8.4710    6.8510   45.6460 C.3    12  PHE12       0.0534
     16  CG         8.8030    8.3080   45.4780 C.ar   12  PHE12      -0.0203
     17  CD1        9.9550    8.7050   44.7940 C.ar   12  PHE12      -0.0042
     18  CD2        7.9990    9.2800   46.0530 C.ar   12  PHE12      -0.0042
     19  CE1       10.2970   10.0520   44.6980 C.ar   12  PHE12      -0.0003
     20  CE2        8.3310   10.6320   45.9640 C.ar   12  PHE12      -0.0003
     21  CZ         9.4810   11.0160   45.2860 C.ar   12  PHE12      -0.0000
     22  N          1.9510    6.1200   45.4020 N.3    16  TRP16      -0.1241
     23  CA         3.3120    6.3390   45.8680 C.3    16  TRP16       0.1605
     24  C          3.3860    7.1120   47.1640 C.2    16  TRP16       0.2264
     25  O          2.5520    7.9730   47.4540 O.2    16  TRP16      -0.2867
     26  CB         4.1270    7.0980   44.8230 C.3    16  TRP16       0.0550
     27  CG         4.3200    6.3600   43.5630 C.ar   16  TRP16       0.0003
     28  CD1        3.7040    6.5930   42.3670 C.ar   16  TRP16       0.0946
     29  CD2        5.2220    5.2780   43.3500 C.ar   16  TRP16       0.0152
     30  NE1        4.1770    5.7180   41.4140 N.ar   16  TRP16      -0.2442
     31  CE2        5.1110    4.8970   41.9950 C.ar   16  TRP16       0.0810
     32  CE3        6.1200    4.5890   44.1750 C.ar   16  TRP16       0.0012
     33  CZ2        5.8640    3.8570   41.4450 C.ar   16  TRP16       0.0191
     34  CZ3        6.8680    3.5580   43.6320 C.ar   16  TRP16       0.0001
     35  CH2        6.7360    3.2010   42.2770 C.ar   16  TRP16       0.0015
     36  N          8.9740    4.8880   33.6450 N.3    62  THR62      -0.1203
     37  CA         7.6510    5.4510   33.4050 C.3    62  THR62       0.1994
     38  C          7.8060    6.9290   33.0420 C.2    62  THR62       0.2618
     39  O          6.8380    7.6890   32.9880 O.2    62  THR62      -0.2717
     40  CB         6.7710    5.3200   34.6540 C.3    62  THR62       0.1784
     41  OG1        7.4280    5.9490   35.7620 O.3    62  THR62      -0.2211
     42  CG2        6.5230    3.8580   34.9720 C.3    62  THR62       0.0376
     43  N          9.0470    7.3160   32.7820 N.am   63  SER63      -0.1951
     44  CA         9.3890    8.6820   32.4270 C.3    63  SER63       0.1924
     45  C         10.8840    8.6600   32.1700 C.2    63  SER63       0.2314
     46  O         11.5240    7.6310   32.3820 O.2    63  SER63      -0.2863
     47  CB         9.0520    9.6120   33.5870 C.3    63  SER63       0.2116
     48  OG         9.6200   10.8850   33.4030 O.3    63  SER63      -0.2180
     49  N         13.0400   10.3600   33.7940 N.3    65  LYS65      -0.1231
     50  CA        13.7090   10.7480   35.0340 C.3    65  LYS65       0.1693
     51  C         13.1320    9.9690   36.2080 C.2    65  LYS65       0.2592
     52  O         13.4770   10.2180   37.3600 O.2    65  LYS65      -0.2718
     53  CB        13.5770   12.2500   35.3010 C.3    65  LYS65       0.0285
     54  CG        14.7170   13.0820   34.7160 C.3    65  LYS65       0.0035
     55  CD        14.5010   14.5700   34.9340 C.3    65  LYS65       0.0206
     56  CE        15.6350   15.3730   34.3180 C.3    65  LYS65       0.1093
     57  NZ        15.3820   16.8360   34.3820 N.3    65  LYS65      -0.1314
     58  N         12.2510    9.0210   35.9050 N.am   66  PHE66      -0.1976
     59  CA        11.6370    8.2090   36.9390 C.3    66  PHE66       0.1639
     60  C         11.5190    6.7620   36.4350 C.2    66  PHE66       0.2290
     61  O         11.1930    6.5190   35.2620 O.2    66  PHE66      -0.2864
     62  CB        10.2550    8.7660   37.2840 C.3    66  PHE66       0.0560
     63  CG         9.6850    8.2340   38.5670 C.ar   66  PHE66      -0.0200
     64  CD1       10.0250    8.8130   39.7920 C.ar   66  PHE66      -0.0042
     65  CD2        8.8220    7.1360   38.5610 C.ar   66  PHE66      -0.0042
     66  CE1        9.5130    8.3030   40.9980 C.ar   66  PHE66      -0.0003
     67  CE2        8.3060    6.6170   39.7570 C.ar   66  PHE66      -0.0003
     68  CZ         8.6510    7.2010   40.9800 C.ar   66  PHE66      -0.0000
     69  N         10.8210    2.3410   37.9070 N.3    68  GLN68      -0.1245
     70  CA        10.3210    1.4780   38.9720 C.3    68  GLN68       0.1566
     71  C         10.4750   -0.0270   38.7210 C.2    68  GLN68       0.2260
     72  O         10.6840   -0.4780   37.5970 O.2    68  GLN68      -0.2867
     73  CB         8.8440    1.7700   39.1930 C.3    68  GLN68       0.0367
     74  CG         7.9810    1.3240   38.0240 C.3    68  GLN68       0.0905
     75  CD         6.5140    1.6020   38.2390 C.2    68  GLN68       0.2608
     76  OE1        6.0750    2.7540   38.2240 O.2    68  GLN68      -0.2717
     77  NE2        5.7450    0.5470   38.4580 N.am   68  GLN68      -0.0878
     78  N         13.4700    8.6050   41.7160 N.3    81  GLY81      -0.1210
     79  CA        13.3580    9.8340   40.9420 C.3    81  GLY81       0.1956
     80  C         14.7500   10.4120   40.7240 C.2    81  GLY81       0.2611
     81  O         15.4520   10.7040   41.6920 O.2    81  GLY81      -0.2717
     82  N         15.1610   10.5760   39.4700 N.am   82  PHE82      -0.1976
     83  CA        16.4840   11.1170   39.1880 C.3    82  PHE82       0.1639
     84  C         16.4660   12.5980   38.7980 C.2    82  PHE82       0.2290
     85  O         15.4430   13.1310   38.3760 O.2    82  PHE82      -0.2864
     86  CB        17.1680   10.2990   38.0900 C.3    82  PHE82       0.0560
     87  CG        17.4270    8.8710   38.4680 C.ar   82  PHE82      -0.0200
     88  CD1       16.4150    7.9200   38.4010 C.ar   82  PHE82      -0.0042
     89  CD2       18.6860    8.4740   38.9010 C.ar   82  PHE82      -0.0042
     90  CE1       16.6560    6.5840   38.7620 C.ar   82  PHE82      -0.0003
     91  CE2       18.9360    7.1460   39.2640 C.ar   82  PHE82      -0.0003
     92  CZ        17.9210    6.2000   39.1950 C.ar   82  PHE82      -0.0000
@<TRIPOS>BOND
     1    45    46    2
     2    45    44    1
     3    44    43    1
     4    44    47    1
     5    43    38   am
     6    39    38    2
     7    38    37    1
     8    48    47    1
     9    37    36    1
    10    37    40    1
    11    49    50    1
    12    56    57    1
    13    56    55    1
    14    40    42    1
    15    40    41    1
    16    54    55    1
    17    54    53    1
    18    50    53    1
    19    50    51    1
    20    61    60    2
    21    58    51   am
    22    58    59    1
    23    51    52    2
    24    60    59    1
    25    59    62    1
    26    62    63    1
    27    72    71    2
    28    69    70    1
    29    74    75    1
    30    74    73    1
    31    86    87    1
    32    86    83    1
    33    76    75    2
    34    75    77   am
    35    85    84    2
    36    88    87   ar
    37    88    90   ar
    38    87    89   ar
    39    65    63   ar
    40    65    67   ar
    41    63    64   ar
    42    71    70    1
    43    90    92   ar
    44    84    83    1
    45    89    91   ar
    46    70    73    1
    47    83    82    1
    48    92    91   ar
    49    82    80   am
    50    67    68   ar
    51    64    66   ar
    52    80    79    1
    53    80    81    2
    54    79    78    1
    55    68    66   ar
    56    30    31   ar
    57    30    28   ar
    58    33    31   ar
    59    33    35   ar
    60    31    29   ar
    61    35    34   ar
    62    28    27   ar
    63    29    27   ar
    64    29    32   ar
    65    27    26    1
    66    34    32   ar
    67     4     3    2
    68     1     2    1
    69    19    17   ar
    70    19    21   ar
    71    17    16   ar
    72     7     9   ar
    73     7     6   ar
    74    26    23    1
    75     5     2    1
    76     5     6    1
    77    21    20   ar
    78     9    10   ar
    79    22    23    1
    80    16    15    1
    81    16    18   ar
    82     3     2    1
    83     6     8   ar
    84    15    12    1
    85    23    24    1
    86    20    18   ar
    87    14    13    2
    88    11    12    1
    89    10     8   ar
    90    12    13    1
    91    24    25    2
