@<TRIPOS>MOLECULE
tmp/1i7eA00.pdb
 115 107 0 0 0
SMALL
GASTEIGER

@<TRIPOS>ATOM
      1  N         23.4930   30.3390   68.8460 N.3    56  ASN56      -0.1240
      2  CA        22.1960   30.8580   69.3800 C.3    56  ASN56       0.1653
      3  C         21.0520   29.9910   68.8860 C.2    56  ASN56       0.2266
      4  O         21.0890   29.4830   67.7640 O.2    56  ASN56      -0.2867
      5  CB        21.9450   32.2960   68.9150 C.3    56  ASN56       0.1155
      6  CG        23.2010   32.9840   68.4370 C.2    56  ASN56       0.2627
      7  OD1       24.2570   32.8990   69.0670 O.2    56  ASN56      -0.2716
      8  ND2       23.0890   33.6870   67.3200 N.am   56  ASN56      -0.0877
      9  N         17.4990   29.2500   67.3520 N.3    58  LEU58      -0.1245
     10  CA        16.5510   29.9340   66.4870 C.3    58  LEU58       0.1561
     11  C         15.2090   29.2530   66.7370 C.2    58  LEU58       0.2260
     12  O         15.1050   28.0250   66.6880 O.2    58  LEU58      -0.2867
     13  CB        16.9550   29.8360   65.0120 C.3    58  LEU58       0.0270
     14  CG        17.6940   31.0830   64.5120 C.3    58  LEU58       0.0019
     15  CD1       18.9860   31.2600   65.2680 C.3    58  LEU58       0.0001
     16  CD2       17.9700   30.9570   63.0430 C.3    58  LEU58       0.0001
     17  N         17.3530   28.9660   59.5890 N.3    66  ASP66      -0.1239
     18  CA        17.6520   30.3560   59.9000 C.3    66  ASP66       0.1674
     19  C         16.4360   31.2640   59.7140 C.2    66  ASP66       0.2266
     20  O         16.5330   32.4860   59.8120 O.2    66  ASP66      -0.2867
     21  CB        18.8430   30.8730   59.0940 C.3    66  ASP66       0.1410
     22  CG        18.6260   30.7790   57.6160 C.2    66  ASP66       0.3668
     23  OD1       19.1800   29.8370   57.0060 O.co2  66  ASP66      -0.2456
     24  OD2       17.9060   31.6360   57.0650 O.co2  66  ASP66      -0.2456
     25  N         13.0970   32.3760   61.3190 N.3    68  TYR68      -0.1241
     26  CA        12.6510   32.3480   62.7070 C.3    68  TYR68       0.1605
     27  C         11.7820   33.5450   63.0840 C.2    68  TYR68       0.2264
     28  O         11.7270   34.5420   62.3690 O.2    68  TYR68      -0.2867
     29  CB        13.8870   32.3630   63.5930 C.3    68  TYR68       0.0534
     30  CG        14.6430   33.6740   63.4580 C.ar   68  TYR68      -0.0201
     31  CD1       14.5100   34.6770   64.4220 C.ar   68  TYR68      -0.0009
     32  CD2       15.4120   33.9490   62.3230 C.ar   68  TYR68      -0.0009
     33  CE1       15.1460   35.9180   64.2750 C.ar   68  TYR68       0.0417
     34  CE2       16.0460   35.1840   62.1610 C.ar   68  TYR68       0.0417
     35  CZ        15.9020   36.1690   63.1330 C.ar   68  TYR68       0.1957
     36  OH        16.5420   37.3840   62.9750 O.3    68  TYR68      -0.2866
     37  N         14.7290   34.5300   68.5900 N.3    71  LYS71      -0.1245
     38  CA        16.1230   34.1940   68.6490 C.3    71  LYS71       0.1561
     39  C         16.6650   34.3060   70.0590 C.2    71  LYS71       0.2260
     40  O         16.4020   35.2820   70.7570 O.2    71  LYS71      -0.2867
     41  CB        16.8940   35.1060   67.7410 C.3    71  LYS71       0.0271
     42  CG        18.3270   34.7690   67.7360 C.3    71  LYS71       0.0035
     43  CD        18.9510   35.7930   66.8940 C.3    71  LYS71       0.0206
     44  CE        20.4260   35.8620   67.0610 C.3    71  LYS71       0.1093
     45  NZ        20.8410   37.1470   66.4460 N.3    71  LYS71      -0.1314
     46  N         19.9680   34.5220   72.3650 N.3    73  ARG73      -0.1245
     47  CA        21.3870   34.8490   72.4900 C.3    73  ARG73       0.1563
     48  C         21.9090   34.6080   73.9120 C.2    73  ARG73       0.2260
     49  O         21.3250   35.0530   74.8990 O.2    73  ARG73      -0.2867
     50  CB        21.6360   36.3170   72.1250 C.3    73  ARG73       0.0307
     51  CG        22.7700   36.9490   72.9380 C.3    73  ARG73       0.0489
     52  CD        22.9110   38.4310   72.6430 C.3    73  ARG73       0.2205
     53  NE        24.1930   38.7550   72.0030 N.pl3  73  ARG73      -0.0865
     54  CZ        24.8630   38.0030   71.1060 C.cat  73  ARG73       0.5346
     55  NH1       24.4260   36.8120   70.6500 N.pl3  73  ARG73       0.1354
     56  NH2       26.0450   38.4450   70.6850 N.pl3  73  ARG73       0.1354
     57  N         15.2260   37.6980   71.2560 N.3    84  TYR84      -0.1241
     58  CA        14.8810   38.7820   70.3360 C.3    84  TYR84       0.1605
     59  C         13.8160   38.2790   69.3860 C.2    84  TYR84       0.2264
     60  O         13.6280   37.0740   69.2600 O.2    84  TYR84      -0.2867
     61  CB        16.0860   39.1990   69.4840 C.3    84  TYR84       0.0534
     62  CG        17.3240   39.6210   70.2480 C.ar   84  TYR84      -0.0201
     63  CD1       18.3750   38.7190   70.4710 C.ar   84  TYR84      -0.0009
     64  CD2       17.4470   40.9170   70.7530 C.ar   84  TYR84      -0.0009
     65  CE1       19.5290   39.1060   71.1700 C.ar   84  TYR84       0.0417
     66  CE2       18.5910   41.3160   71.4510 C.ar   84  TYR84       0.0417
     67  CZ        19.6250   40.4030   71.6640 C.ar   84  TYR84       0.1957
     68  OH        20.7460   40.7930   72.3720 O.3    84  TYR84      -0.2866
     69  N         12.2800   38.6730   65.2720 N.3    86  ASN86      -0.1225
     70  CA        13.0430   38.6530   64.0220 C.3    86  ASN86       0.1785
     71  C         13.2270   40.0250   63.3650 C.2    86  ASN86       0.2598
     72  O         13.3840   40.1180   62.1460 O.2    86  ASN86      -0.2718
     73  CB        12.4140   37.6950   63.0150 C.3    86  ASN86       0.1169
     74  CG        10.9970   38.0380   62.7160 C.2    86  ASN86       0.2627
     75  OD1       10.5950   39.1860   62.8480 O.2    86  ASN86      -0.2716
     76  ND2       10.2230   37.0520   62.3010 N.am   86  ASN86      -0.0877
     77  N         13.2100   41.0830   64.1780 N.am   87  GLY87      -0.1942
     78  CA        13.3920   42.4360   63.6740 C.3    87  GLY87       0.2014
     79  C         14.8540   42.7580   63.3920 C.2    87  GLY87       0.2639
     80  O         15.7310   41.9170   63.5990 O.2    87  GLY87      -0.2714
     81  N         15.1280   43.9870   62.9490 N.am   88  VAL88      -0.1963
     82  CA        16.4910   44.4080   62.6160 C.3    88  VAL88       0.1727
     83  C         17.4180   44.7950   63.7480 C.2    88  VAL88       0.2616
     84  O         17.0880   45.6360   64.5830 O.2    88  VAL88      -0.2715
     85  CB        16.4650   45.5760   61.5970 C.3    88  VAL88       0.0290
     86  CG1       17.8900   46.0380   61.3000 C.3    88  VAL88       0.0023
     87  CG2       15.7840   45.1520   60.3060 C.3    88  VAL88       0.0023
     88  N         18.6000   44.1800   63.7650 N.am   89  ASN89      -0.1972
     89  CA        19.6370   44.4500   64.7600 C.3    89  ASN89       0.1688
     90  C         20.0140   45.9140   64.6260 C.2    89  ASN89       0.2292
     91  O         20.4750   46.3450   63.5690 O.2    89  ASN89      -0.2864
     92  CB        20.8600   43.5850   64.4700 C.3    89  ASN89       0.1181
     93  CG        22.0500   43.9340   65.3550 C.2    89  ASN89       0.2629
     94  OD1       21.9690   44.9150   66.1240 O.2    89  ASN89      -0.2716
     95  ND2       23.1080   43.1910   65.2680 N.am   89  ASN89      -0.0877
     96  N         23.2110   46.9980   62.8630 N.3    92  LYS92      -0.1245
     97  CA        23.2820   46.8390   61.4100 C.3    92  LYS92       0.1561
     98  C         22.2470   47.6950   60.6890 C.2    92  LYS92       0.2260
     99  O         22.1990   47.7330   59.4640 O.2    92  LYS92      -0.2867
    100  CB        23.0780   45.3650   61.0510 C.3    92  LYS92       0.0271
    101  CG        24.3540   44.5160   61.1250 C.3    92  LYS92       0.0035
    102  CD        25.0110   44.6310   62.5060 C.3    92  LYS92       0.0206
    103  CE        26.1410   43.6320   62.7190 C.3    92  LYS92       0.1093
    104  NZ        26.6300   43.6960   64.1310 N.3    92  LYS92      -0.1314
    105  N         14.7150   45.5470   66.0680 N.3   104  ARG104     -0.1245
    106  CA        14.5340   44.3150   66.7960 C.3   104  ARG104      0.1563
    107  C         13.9910   44.6040   68.1850 C.2   104  ARG104      0.2260
    108  O         14.3530   45.5980   68.8120 O.2   104  ARG104     -0.2867
    109  CB        15.8930   43.6320   66.8850 C.3   104  ARG104      0.0307
    110  CG        15.9350   42.2970   67.5410 C.3   104  ARG104      0.0489
    111  CD        17.3550   41.7750   67.4410 C.3   104  ARG104      0.2205
    112  NE        18.3100   42.5890   68.1980 N.pl3 104  ARG104     -0.0865
    113  CZ        19.6240   42.3910   68.1910 C.cat 104  ARG104      0.5346
    114  NH1       20.1410   41.4160   67.4560 N.pl3 104  ARG104      0.1354
    115  NH2       20.4210   43.1350   68.9420 N.pl3 104  ARG104      0.1354
@<TRIPOS>BOND
     1    23    22   ar
     2    24    22   ar
     3    22    21    1
     4    21    18    1
     5    99    98    2
     6    17    18    1
     7    19    20    2
     8    19    18    1
     9    87    85    1
    10    98    97    1
    11   100   101    1
    12   100    97    1
    13   101   102    1
    14    86    85    1
    15    25    26    1
    16    97    96    1
    17    85    82    1
    18    72    71    2
    19    34    32   ar
    20    34    35   ar
    21    76    74   am
    22    32    30   ar
    23    28    27    2
    24   102   103    1
    25    82    81    1
    26    82    83    1
    27    26    27    1
    28    26    29    1
    29    74    75    2
    30    74    73    1
    31   103   104    1
    32    81    79   am
    33    36    35    1
    34    73    70    1
    35    16    14    1
    36    35    33   ar
    37    71    70    1
    38    71    77   am
    39    79    80    2
    40    79    78    1
    41    30    29    1
    42    30    31   ar
    43    91    90    2
    44    78    77    1
    45    83    88   am
    46    83    84    2
    47    88    89    1
    48    70    69    1
    49    33    31   ar
    50    92    89    1
    51    92    93    1
    52    14    13    1
    53    14    15    1
    54    90    89    1
    55    13    10    1
    56    95    93   am
    57    93    94    2
    58   105   106    1
    59    45    44    1
    60    10    11    1
    61    10     9    1
    62    12    11    2
    63   106   109    1
    64   106   107    1
    65   109   110    1
    66    43    44    1
    67    43    42    1
    68     8     6   am
    69   111   110    1
    70   111   112    1
    71   114   113    1
    72    42    41    1
    73    41    38    1
    74     4     3    2
    75   107   108    2
    76   113   112    2
    77   113   115    1
    78     6     5    1
    79     6     7    2
    80    37    38    1
    81    38    39    1
    82     1     2    1
    83     3     2    1
    84     5     2    1
    85    60    59    2
    86    59    58    1
    87    61    62    1
    88    61    58    1
    89    39    40    2
    90    62    63   ar
    91    62    64   ar
    92    58    57    1
    93    63    65   ar
    94    55    54    1
    95    56    54    1
    96    64    66   ar
    97    54    53    2
    98    65    67   ar
    99    66    67   ar
   100    67    68    1
   101    53    52    1
   102    50    47    1
   103    50    51    1
   104    46    47    1
   105    47    48    1
   106    52    51    1
   107    48    49    2
