@<TRIPOS>MOLECULE
tmp/1i7gA00.pdb
 239 224 0 0 0
SMALL
GASTEIGER

@<TRIPOS>ATOM
      1  N         31.6530   47.3540   41.4560 N.3    41  ILE41      -0.1245
      2  CA        32.9430   47.3370   42.1410 C.3    41  ILE41       0.1561
      3  C         33.9540   47.9620   41.1890 C.2    41  ILE41       0.2260
      4  O         34.3050   47.3720   40.1710 O.2    41  ILE41      -0.2867
      5  CB        33.3960   45.9080   42.4740 C.3    41  ILE41       0.0252
      6  CG1       32.3530   45.2310   43.3640 C.3    41  ILE41       0.0019
      7  CG2       34.7530   45.9420   43.1740 C.3    41  ILE41       0.0019
      8  CD1       32.6360   43.7700   43.6510 C.3    41  ILE41       0.0001
      9  N         34.9050   47.3790   46.6970 N.3    47  LEU47      -0.1245
     10  CA        35.2710   45.9640   46.7820 C.3    47  LEU47       0.1561
     11  C         34.9900   45.4420   48.1870 C.2    47  LEU47       0.2260
     12  O         34.2770   44.4530   48.3590 O.2    47  LEU47      -0.2867
     13  CB        36.7570   45.7660   46.4500 C.3    47  LEU47       0.0270
     14  CG        37.3120   44.3510   46.6480 C.3    47  LEU47       0.0019
     15  CD1       36.5640   43.3620   45.7620 C.3    47  LEU47       0.0001
     16  CD2       38.7900   44.3400   46.3220 C.3    47  LEU47       0.0001
     17  N         32.2240   42.8980   49.4870 N.3    51  GLU51      -0.1245
     18  CA        32.5760   41.6550   50.1620 C.3    51  GLU51       0.1567
     19  C         31.8200   41.5510   51.4790 C.2    51  GLU51       0.2260
     20  O         31.4140   40.4600   51.8840 O.2    51  GLU51      -0.2867
     21  CB        34.0840   41.5950   50.4070 C.3    51  GLU51       0.0388
     22  CG        34.8970   41.6090   49.1230 C.3    51  GLU51       0.1160
     23  CD        36.3860   41.7210   49.3690 C.2    51  GLU51       0.3649
     24  OE1       36.8140   42.7140   49.9950 O.co2  51  GLU51      -0.2457
     25  OE2       37.1300   40.8180   48.9300 O.co2  51  GLU51      -0.2457
     26  N         28.7610   40.4510   49.9470 N.3    54  LEU54      -0.1245
     27  CA        28.8850   39.5540   48.8010 C.3    54  LEU54       0.1561
     28  C         30.3480   39.3510   48.4170 C.2    54  LEU54       0.2260
     29  O         31.0740   38.6000   49.0630 O.2    54  LEU54      -0.2867
     30  CB        28.1210   40.1190   47.6020 C.3    54  LEU54       0.0270
     31  CG        26.6660   39.6920   47.4390 C.3    54  LEU54       0.0019
     32  CD1       26.0060   40.5070   46.3300 C.3    54  LEU54       0.0001
     33  CD2       26.6220   38.1950   47.1390 C.3    54  LEU54       0.0001
     34  N         40.3720   38.3110   45.6580 N.3    63  ILE63      -0.1231
     35  CA        39.7790   38.1970   44.3300 C.3    63  ILE63       0.1692
     36  C         40.2300   36.8970   43.6650 C.2    63  ILE63       0.2592
     37  O         39.4240   36.1700   43.0860 O.2    63  ILE63      -0.2718
     38  CB        40.1720   39.4080   43.4630 C.3    63  ILE63       0.0266
     39  CG1       39.4590   40.6580   44.0020 C.3    63  ILE63       0.0019
     40  CG2       39.8340   39.1500   41.9990 C.3    63  ILE63       0.0020
     41  CD1       39.8750   41.9530   43.3320 C.3    63  ILE63       0.0001
     42  N         41.5270   36.6180   43.7530 N.am   64  PHE64      -0.1976
     43  CA        42.1020   35.3940   43.2030 C.3    64  PHE64       0.1639
     44  C         41.2480   34.2420   43.7100 C.2    64  PHE64       0.2290
     45  O         40.8440   33.3690   42.9450 O.2    64  PHE64      -0.2864
     46  CB        43.5400   35.2240   43.7050 C.3    64  PHE64       0.0560
     47  CG        44.2720   34.0610   43.0970 C.ar   64  PHE64      -0.0200
     48  CD1       44.6190   34.0660   41.7540 C.ar   64  PHE64      -0.0042
     49  CD2       44.6430   32.9690   43.8770 C.ar   64  PHE64      -0.0042
     50  CE1       45.3320   32.9950   41.1950 C.ar   64  PHE64      -0.0003
     51  CE2       45.3540   31.9020   43.3260 C.ar   64  PHE64      -0.0003
     52  CZ        45.6960   31.9170   41.9860 C.ar   64  PHE64      -0.0000
     53  N         38.0500   34.3060   45.0140 N.3    66  CYS66      -0.1221
     54  CA        36.6610   34.3130   44.5580 C.3    66  CYS66       0.1808
     55  C         36.5440   33.7750   43.1370 C.2    66  CYS66       0.2601
     56  O         35.6020   33.0460   42.8200 O.2    66  CYS66      -0.2717
     57  CB        36.0740   35.7250   44.6490 C.3    66  CYS66       0.0970
     58  SG        35.8990   36.2940   46.3640 S.3    66  CYS66      -0.0800
     59  N         37.5060   34.1140   42.2830 N.am   67  CYS67      -0.1956
     60  CA        37.4680   33.6070   40.9180 C.3    67  CYS67       0.1843
     61  C         37.4710   32.0780   40.9760 C.2    67  CYS67       0.2625
     62  O         36.7780   31.4110   40.2090 O.2    67  CYS67      -0.2714
     63  CB        38.6710   34.1180   40.1150 C.3    67  CYS67       0.0997
     64  SG        38.6060   35.9020   39.7340 S.3    67  CYS67      -0.0797
     65  N         38.2430   31.5230   41.9010 N.am   68  GLN68      -0.1977
     66  CA        38.3090   30.0760   42.0460 C.3    68  GLN68       0.1601
     67  C         36.9620   29.5050   42.4930 C.2    68  GLN68       0.2287
     68  O         36.5800   28.4130   42.0780 O.2    68  GLN68      -0.2864
     69  CB        39.4030   29.6980   43.0450 C.3    68  GLN68       0.0394
     70  CG        40.8080   29.9290   42.5030 C.3    68  GLN68       0.0908
     71  CD        41.8770   29.4320   43.4500 C.2    68  GLN68       0.2608
     72  OE1       41.9420   28.2400   43.7510 O.2    68  GLN68      -0.2717
     73  NE2       42.7190   30.3430   43.9300 N.am   68  GLN68      -0.0878
     74  N         34.1320   30.6210   41.6850 N.3    70  THR70      -0.1203
     75  CA        33.2930   30.6100   40.5020 C.3    70  THR70       0.1994
     76  C         33.6110   29.3830   39.6500 C.2    70  THR70       0.2618
     77  O         32.6980   28.6960   39.1850 O.2    70  THR70      -0.2717
     78  CB        33.4880   31.8930   39.6940 C.3    70  THR70       0.1784
     79  OG1       33.0460   33.0050   40.4810 O.3    70  THR70      -0.2211
     80  CG2       32.7070   31.8350   38.3980 C.3    70  THR70       0.0376
     81  N         34.9040   29.1050   39.4600 N.am   71  SER71      -0.1951
     82  CA        35.3440   27.9430   38.6800 C.3    71  SER71       0.1924
     83  C         34.7940   26.6500   39.2510 C.2    71  SER71       0.2314
     84  O         34.2760   25.8090   38.5180 O.2    71  SER71      -0.2863
     85  CB        36.8750   27.8140   38.6770 C.3    71  SER71       0.2116
     86  OG        37.4970   28.9240   38.0780 O.3    71  SER71      -0.2180
     87  N         38.1470   23.8540   31.7250 N.3   105  TYR105     -0.1241
     88  CA        38.6500   25.2110   31.5980 C.3   105  TYR105      0.1605
     89  C         38.3810   25.8360   30.2440 C.2   105  TYR105      0.2264
     90  O         38.1300   27.0370   30.1590 O.2   105  TYR105     -0.2867
     91  CB        40.1360   25.2680   31.9440 C.3   105  TYR105      0.0534
     92  CG        40.3380   25.4400   33.4220 C.ar  105  TYR105     -0.0201
     93  CD1       40.8950   24.4250   34.1950 C.ar  105  TYR105     -0.0009
     94  CD2       39.9210   26.6060   34.0590 C.ar  105  TYR105     -0.0009
     95  CE1       41.0350   24.5670   35.5680 C.ar  105  TYR105      0.0417
     96  CE2       40.0490   26.7590   35.4240 C.ar  105  TYR105      0.0417
     97  CZ        40.6120   25.7360   36.1790 C.ar  105  TYR105      0.1957
     98  OH        40.7610   25.8890   37.5350 O.3   105  TYR105     -0.2866
     99  N         34.8630   26.7580   30.5920 N.3   108  ILE108     -0.1231
    100  CA        34.6810   27.8750   31.4990 C.3   108  ILE108      0.1692
    101  C         34.9360   29.2150   30.8150 C.2   108  ILE108      0.2592
    102  O         34.1220   30.1360   30.9150 O.2   108  ILE108     -0.2718
    103  CB        35.6100   27.7550   32.7240 C.3   108  ILE108      0.0266
    104  CG1       35.0700   26.6930   33.6730 C.3   108  ILE108      0.0019
    105  CG2       35.7480   29.1010   33.4310 C.3   108  ILE108      0.0020
    106  CD1       35.9950   26.3810   34.8180 C.3   108  ILE108      0.0001
    107  N         36.0620   29.3330   30.1220 N.am  109  PHE109     -0.1976
    108  CA        36.3810   30.5930   29.4690 C.3   109  PHE109      0.1639
    109  C         35.5050   30.8680   28.2610 C.2   109  PHE109      0.2290
    110  O         35.2710   32.0220   27.9080 O.2   109  PHE109     -0.2864
    111  CB        37.8690   30.6440   29.1130 C.3   109  PHE109      0.0560
    112  CG        38.7500   30.7070   30.3160 C.ar  109  PHE109     -0.0200
    113  CD1       38.5360   31.6780   31.2880 C.ar  109  PHE109     -0.0042
    114  CD2       39.7430   29.7600   30.5250 C.ar  109  PHE109     -0.0042
    115  CE1       39.2930   31.6960   32.4530 C.ar  109  PHE109     -0.0003
    116  CE2       40.5020   29.7730   31.6820 C.ar  109  PHE109     -0.0003
    117  CZ        40.2780   30.7400   32.6470 C.ar  109  PHE109     -0.0000
    118  N         32.5050   32.3000   30.0560 N.3   112  LEU112     -0.1245
    119  CA        32.7380   33.5230   30.8200 C.3   112  LEU112      0.1561
    120  C         32.4790   34.7570   29.9650 C.2   112  LEU112      0.2260
    121  O         32.0160   35.7750   30.4690 O.2   112  LEU112     -0.2867
    122  CB        34.1740   33.5600   31.3520 C.3   112  LEU112      0.0270
    123  CG        34.3960   34.5710   32.4730 C.3   112  LEU112      0.0019
    124  CD1       33.6210   34.1080   33.7000 C.3   112  LEU112      0.0001
    125  CD2       35.8820   34.6920   32.7970 C.3   112  LEU112      0.0001
    126  N         32.6080   43.0190   34.1510 N.3   121  MET121     -0.1230
    127  CA        31.9110   41.7590   34.1110 C.3   121  MET121      0.1702
    128  C         31.0490   41.5170   35.3290 C.2   121  MET121      0.2592
    129  O         31.2650   42.1080   36.3850 O.2   121  MET121     -0.2718
    130  CB        32.9330   40.6350   33.9670 C.3   121  MET121      0.0401
    131  CG        33.8980   40.4980   35.1440 C.3   121  MET121      0.0596
    132  SD        35.2620   39.3730   34.7150 S.3   121  MET121     -0.1393
    133  CE        34.3430   37.8710   34.3700 C.3   121  MET121      0.0692
    134  N         30.0730   40.6340   35.1620 N.am  122  LEU122     -0.1966
    135  CA        29.1560   40.2600   36.2300 C.3   122  LEU122      0.1728
    136  C         29.7970   39.3010   37.2320 C.2   122  LEU122      0.2616
    137  O         30.4460   38.3250   36.8520 O.2   122  LEU122     -0.2715
    138  CB        27.9180   39.5870   35.6400 C.3   122  LEU122      0.0311
    139  CG        26.6600   40.4020   35.3470 C.3   122  LEU122      0.0022
    140  CD1       26.9980   41.8460   35.0280 C.3   122  LEU122      0.0001
    141  CD2       25.9270   39.7400   34.2020 C.3   122  LEU122      0.0001
    142  N         29.5930   39.5840   38.5130 N.am  123  VAL123     -0.1963
    143  CA        30.1050   38.7590   39.5950 C.3   123  VAL123      0.1727
    144  C         28.9440   38.4820   40.5500 C.2   123  VAL123      0.2616
    145  O         27.8070   38.8620   40.2730 O.2   123  VAL123     -0.2715
    146  CB        31.2210   39.4870   40.3560 C.3   123  VAL123      0.0290
    147  CG1       32.3820   39.7730   39.4270 C.3   123  VAL123      0.0023
    148  CG2       30.6940   40.7820   40.9320 C.3   123  VAL123      0.0023
    149  N         29.2310   37.8070   41.6570 N.am  124  ALA124     -0.1977
    150  CA        28.2280   37.4900   42.6740 C.3   124  ALA124      0.1597
    151  C         26.8530   37.0660   42.1270 C.2   124  ALA124      0.2287
    152  O         25.8240   37.6430   42.4880 O.2   124  ALA124     -0.2864
    153  CB        28.0720   38.6820   43.6150 C.3   124  ALA124      0.0319
    154  N         31.9940   43.8430   38.2390 N.3   130  ILE130     -0.1245
    155  CA        33.3200   44.3570   38.5580 C.3   130  ILE130      0.1561
    156  C         33.9210   45.0380   37.3420 C.2   130  ILE130      0.2260
    157  O         33.7880   44.5610   36.2200 O.2   130  ILE130     -0.2867
    158  CB        34.2690   43.2380   39.0950 C.3   130  ILE130      0.0252
    159  CG1       35.5060   43.8790   39.7250 C.3   130  ILE130      0.0019
    160  CG2       34.6840   42.2900   37.9790 C.3   130  ILE130      0.0019
    161  CD1       36.2900   42.9310   40.6140 C.3   130  ILE130      0.0001
    162  N         40.2140   45.8110   37.7490 N.3   135  LEU135     -0.1245
    163  CA        40.9870   44.5830   37.6740 C.3   135  LEU135      0.1561
    164  C         42.3800   44.8990   37.1610 C.2   135  LEU135      0.2260
    165  O         43.3570   44.3090   37.6140 O.2   135  LEU135     -0.2867
    166  CB        40.2960   43.5630   36.7610 C.3   135  LEU135      0.0270
    167  CG        38.9870   43.0290   37.3490 C.3   135  LEU135      0.0019
    168  CD1       38.1930   42.2660   36.2960 C.3   135  LEU135      0.0001
    169  CD2       39.2990   42.1500   38.5480 C.3   135  LEU135      0.0001
    170  N         45.5180   38.5240   35.1850 N.3   145  ILE145     -0.1231
    171  CA        44.5670   37.4300   35.1250 C.3   145  ILE145      0.1692
    172  C         43.3960   37.6700   34.1760 C.2   145  ILE145      0.2591
    173  O         43.1910   36.9180   33.2250 O.2   145  ILE145     -0.2718
    174  CB        43.9690   37.1520   36.5140 C.3   145  ILE145      0.0266
    175  CG1       45.0800   36.8410   37.5110 C.3   145  ILE145      0.0019
    176  CG2       42.9820   35.9980   36.4380 C.3   145  ILE145      0.0020
    177  CD1       44.6080   36.8690   38.9390 C.3   145  ILE145      0.0001
    178  N         42.6380   38.7330   34.4270 N.am  146  MET146     -0.1979
    179  CA        41.4380   39.0130   33.6380 C.3   146  MET146      0.1605
    180  C         41.5810   39.7040   32.2860 C.2   146  MET146      0.2287
    181  O         40.8590   39.3740   31.3460 O.2   146  MET146     -0.2864
    182  CB        40.4490   39.8030   34.4990 C.3   146  MET146      0.0413
    183  CG        39.0170   39.3050   34.4310 C.3   146  MET146      0.0598
    184  SD        38.8430   37.5610   34.9010 S.3   146  MET146     -0.1393
    185  CE        38.1250   36.9280   33.4610 C.3   146  MET146      0.0692
    186  N         41.4210   37.7220   29.1840 N.3   149  LYS149     -0.1245
    187  CA        40.0870   37.1560   28.9660 C.3   149  LYS149      0.1561
    188  C         39.1640   38.1770   28.3110 C.2   149  LYS149      0.2260
    189  O         38.2640   37.8110   27.5490 O.2   149  LYS149     -0.2867
    190  CB        39.4640   36.6740   30.2770 C.3   149  LYS149      0.0271
    191  CG        39.9790   35.3290   30.7500 C.3   149  LYS149      0.0035
    192  CD        41.4420   35.3890   31.0900 C.3   149  LYS149      0.0206
    193  CE        41.9200   34.0680   31.6560 C.3   149  LYS149      0.1093
    194  NZ        43.2600   34.2320   32.2710 N.3   149  LYS149     -0.1314
    195  N         46.6500   30.7210   30.9860 N.3   231  HIS231     -0.1241
    196  CA        45.9840   30.9410   32.2610 C.3   231  HIS231      0.1621
    197  C         46.5510   30.0130   33.3260 C.2   231  HIS231      0.2264
    198  O         46.8910   30.4510   34.4180 O.2   231  HIS231     -0.2867
    199  CB        44.4720   30.7150   32.1440 C.3   231  HIS231      0.0745
    200  CG        43.7500   30.9050   33.4400 C.ar  231  HIS231      0.0817
    201  ND1       43.5910   32.1410   34.0230 N.ar  231  HIS231     -0.2268
    202  CD2       43.2420   30.0070   34.3150 C.ar  231  HIS231      0.1154
    203  CE1       43.0180   31.9970   35.2040 C.ar  231  HIS231      0.1986
    204  NE2       42.7980   30.7110   35.4050 N.ar  231  HIS231     -0.2212
    205  N         48.3700   30.9710   36.9000 N.3   235  VAL235     -0.1245
    206  CA        47.8500   30.5030   38.1780 C.3   235  VAL235      0.1561
    207  C         48.9490   29.7840   38.9580 C.2   235  VAL235      0.2260
    208  O         49.0700   29.9480   40.1730 O.2   235  VAL235     -0.2867
    209  CB        46.6330   29.5600   37.9750 C.3   235  VAL235      0.0252
    210  CG1       46.2810   28.8530   39.2850 C.3   235  VAL235      0.0019
    211  CG2       45.4330   30.3740   37.4980 C.3   235  VAL235      0.0019
    212  N         45.5240   27.4110   46.0300 N.3   247  LEU247     -0.1245
    213  CA        44.7110   26.8190   44.9990 C.3   247  LEU247      0.1561
    214  C         43.7440   25.8190   45.6180 C.2   247  LEU247      0.2260
    215  O         44.1450   24.9450   46.3820 O.2   247  LEU247     -0.2867
    216  CB        45.6260   26.1380   43.9890 C.3   247  LEU247      0.0270
    217  CG        45.1490   25.9710   42.5560 C.3   247  LEU247      0.0019
    218  CD1       44.5360   27.2500   42.0530 C.3   247  LEU247      0.0001
    219  CD2       46.3390   25.5670   41.7000 C.3   247  LEU247      0.0001
    220  N         40.6680   22.2370   41.9890 N.3   251  LEU251     -0.1245
    221  CA        41.3650   22.9380   40.9120 C.3   251  LEU251      0.1561
    222  C         42.8310   22.5450   40.8510 C.2   251  LEU251      0.2260
    223  O         43.4100   22.4700   39.7710 O.2   251  LEU251     -0.2867
    224  CB        41.2600   24.4580   41.0880 C.3   251  LEU251      0.0270
    225  CG        39.8450   25.0340   41.1980 C.3   251  LEU251      0.0019
    226  CD1       39.9200   26.5500   41.1490 C.3   251  LEU251      0.0001
    227  CD2       38.9670   24.5110   40.0630 C.3   251  LEU251      0.0001
    228  N         44.4460   20.8310   37.4220 N.3   255  TYR255     -0.1241
    229  CA        45.6550   21.4110   36.8410 C.3   255  TYR255      0.1605
    230  C         46.8050   20.4030   36.7740 C.2   255  TYR255      0.2264
    231  O         47.6230   20.4550   35.8670 O.2   255  TYR255     -0.2867
    232  CB        46.0880   22.6430   37.6430 C.3   255  TYR255      0.0534
    233  CG        45.3380   23.9040   37.2700 C.ar  255  TYR255     -0.0201
    234  CD1       44.7260   24.6980   38.2440 C.ar  255  TYR255     -0.0009
    235  CD2       45.2530   24.3100   35.9420 C.ar  255  TYR255     -0.0009
    236  CE1       44.0540   25.8610   37.9010 C.ar  255  TYR255      0.0417
    237  CE2       44.5850   25.4660   35.5890 C.ar  255  TYR255      0.0417
    238  CZ        43.9880   26.2350   36.5720 C.ar  255  TYR255      0.1957
    239  OH        43.3200   27.3680   36.2050 O.3   255  TYR255     -0.2866
@<TRIPOS>BOND
     1   189   188    2
     2   110   109    2
     3   109   108    1
     4   188   187    1
     5   187   186    1
     6   187   190    1
     7   111   108    1
     8   111   112    1
     9   108   107    1
    10   120   121    2
    11   120   119    1
    12   118   119    1
    13   107   101   am
    14    90    89    2
    15    89    88    1
    16   190   191    1
    17   112   114   ar
    18   112   113   ar
    19   114   116   ar
    20    99   100    1
    21   191   192    1
    22   101   102    2
    23   101   100    1
    24   119   122    1
    25   195   196    1
    26   192   193    1
    27   113   115   ar
    28   181   180    2
    29   122   123    1
    30   100   103    1
    31    88    87    1
    32    88    91    1
    33   193   194    1
    34   116   117   ar
    35    91    92    1
    36   199   196    1
    37   199   200    1
    38   196   197    1
    39   180   179    1
    40   115   117   ar
    41   123   125    1
    42   123   124    1
    43   103   105    1
    44   103   104    1
    45   173   172    2
    46   197   198    2
    47    92    94   ar
    48    92    93   ar
    49   200   201   ar
    50   200   202   ar
    51   185   184    1
    52   179   178    1
    53   179   182    1
    54   104   106    1
    55   130   127    1
    56   130   131    1
    57   201   203   ar
    58    94    96   ar
    59   127   126    1
    60   127   128    1
    61   172   178   am
    62   172   171    1
    63    93    95   ar
    64   141   139    1
    65   202   204   ar
    66   133   132    1
    67   183   182    1
    68   183   184    1
    69   132   131    1
    70   140   139    1
    71   171   170    1
    72   171   174    1
    73   134   128   am
    74   134   135    1
    75   203   204   ar
    76   128   129    2
    77   139   138    1
    78    96    97   ar
    79    95    97   ar
    80   237   235   ar
    81   237   238   ar
    82   138   135    1
    83   231   230    2
    84   235   233   ar
    85    97    98    1
    86   239   238    1
    87   157   156    2
    88   135   136    1
    89   168   167    1
    90   176   174    1
    91   174   175    1
    92   238   236   ar
    93   166   167    1
    94   166   163    1
    95   230   229    1
    96   229   228    1
    97   229   232    1
    98   137   136    2
    99   205   206    1
   100   164   165    2
   101   164   163    1
   102   136   142   am
   103   233   232    1
   104   233   234   ar
   105   156   155    1
   106   167   169    1
   107   211   209    1
   108   175   177    1
   109   163   162    1
   110   236   234   ar
   111   209   206    1
   112   209   210    1
   113   160   158    1
   114    86    85    1
   115   206   207    1
   116   154   155    1
   117    80    78    1
   118   142   143    1
   119    84    83    2
   120   155   158    1
   121    85    82    1
   122    82    83    1
   123    82    81    1
   124   207   208    2
   125   158   159    1
   126    77    76    2
   127   147   146    1
   128    81    76   am
   129   143   146    1
   130   143   144    1
   131    76    75    1
   132    78    79    1
   133    78    75    1
   134   159   161    1
   135    64    63    1
   136   223   222    2
   137   227   225    1
   138    63    60    1
   139     4     3    2
   140    62    61    2
   141   145   144    2
   142   146   148    1
   143    75    74    1
   144   144   149   am
   145   222   221    1
   146   221   224    1
   147   221   220    1
   148    60    61    1
   149    60    59    1
   150    61    65   am
   151   224   225    1
   152   226   225    1
   153     3     2    1
   154    50    48   ar
   155    50    52   ar
   156     1     2    1
   157   149   150    1
   158   219   217    1
   159    48    47   ar
   160    65    66    1
   161    52    51   ar
   162    40    38    1
   163    66    67    1
   164    66    69    1
   165   218   217    1
   166    68    67    2
   167   151   152    2
   168   151   150    1
   169     2     5    1
   170    59    55   am
   171     5     7    1
   172     5     6    1
   173    70    69    1
   174    70    71    1
   175   217   216    1
   176   150   153    1
   177    56    55    2
   178    45    44    2
   179    37    36    2
   180    47    46    1
   181    47    49   ar
   182    55    54    1
   183    43    46    1
   184    43    44    1
   185    43    42    1
   186    51    49   ar
   187    41    39    1
   188     6     8    1
   189    71    72    2
   190    71    73   am
   191    38    39    1
   192    38    35    1
   193    36    42   am
   194    36    35    1
   195   216   213    1
   196    35    34    1
   197    54    57    1
   198    54    53    1
   199    57    58    1
   200   213   214    1
   201   213   212    1
   202   214   215    2
   203    15    14    1
   204    16    14    1
   205    32    31    1
   206    13    14    1
   207    13    10    1
   208     9    10    1
   209    10    11    1
   210    33    31    1
   211    31    30    1
   212    30    27    1
   213    11    12    2
   214    28    27    1
   215    28    29    2
   216    27    26    1
   217    25    23   ar
   218    22    23    1
   219    22    21    1
   220    23    24   ar
   221    17    18    1
   222    18    21    1
   223    18    19    1
   224    19    20    2
