@<TRIPOS>MOLECULE
tmp/1i7iB00.pdb
 233 223 0 0 0
SMALL
GASTEIGER

@<TRIPOS>ATOM
      1  N         42.4130   -7.1030   54.1830 N.3    49  LEU49      -0.1245
      2  CA        42.8560   -7.4200   52.8320 C.3    49  LEU49       0.1561
      3  C         44.1840   -8.1610   52.9370 C.2    49  LEU49       0.2260
      4  O         44.3600   -9.2190   52.3330 O.2    49  LEU49      -0.2867
      5  CB        43.0500   -6.1480   52.0040 C.3    49  LEU49       0.0270
      6  CG        43.0640   -6.2960   50.4750 C.3    49  LEU49       0.0019
      7  CD1       43.6120   -5.0150   49.8740 C.3    49  LEU49       0.0001
      8  CD2       43.9140   -7.4790   50.0320 C.3    49  LEU49       0.0001
      9  N         44.9840  -12.1110   51.5320 N.3    53  GLU53      -0.1245
     10  CA        46.0300  -12.5090   50.5950 C.3    53  GLU53       0.1567
     11  C         46.8700  -13.6580   51.1490 C.2    53  GLU53       0.2260
     12  O         47.4680  -14.4200   50.3910 O.2    53  GLU53      -0.2867
     13  CB        46.9540  -11.3290   50.2950 C.3    53  GLU53       0.0388
     14  CG        46.3360  -10.2000   49.5050 C.3    53  GLU53       0.1160
     15  CD        47.3180   -9.0650   49.2890 C.2    53  GLU53       0.3649
     16  OE1       48.5340   -9.3400   49.2080 O.co2  53  GLU53      -0.2457
     17  OE2       46.8810   -7.9020   49.1880 O.co2  53  GLU53      -0.2457
     18  N         46.1090  -15.8660   47.1010 N.3    58  PHE58      -0.1241
     19  CA        45.8090  -15.1300   45.8660 C.3    58  PHE58       0.1605
     20  C         46.8340  -15.4740   44.7890 C.2    58  PHE58       0.2264
     21  O         48.0330  -15.2870   44.9790 O.2    58  PHE58      -0.2867
     22  CB        45.8360  -13.6160   46.1000 C.3    58  PHE58       0.0534
     23  CG        44.6330  -13.0760   46.8210 C.ar   58  PHE58      -0.0203
     24  CD1       44.5130  -11.7060   47.0500 C.ar   58  PHE58      -0.0042
     25  CD2       43.6280  -13.9240   47.2810 C.ar   58  PHE58      -0.0042
     26  CE1       43.4130  -11.1850   47.7260 C.ar   58  PHE58      -0.0003
     27  CE2       42.5190  -13.4120   47.9620 C.ar   58  PHE58      -0.0003
     28  CZ        42.4140  -12.0380   48.1830 C.ar   58  PHE58      -0.0000
     29  N         47.6890  -13.9950   42.1900 N.3    60  HIS60      -0.1241
     30  CA        48.4950  -12.8890   41.6910 C.3    60  HIS60       0.1621
     31  C         49.4040  -12.3910   42.8260 C.2    60  HIS60       0.2264
     32  O         48.9700  -12.2400   43.9730 O.2    60  HIS60      -0.2867
     33  CB        47.6040  -11.7640   41.1470 C.3    60  HIS60       0.0745
     34  CG        46.6900  -11.1610   42.1660 C.ar   60  HIS60       0.0817
     35  ND1       45.6570  -11.8620   42.7470 N.ar   60  HIS60      -0.2268
     36  CD2       46.6650   -9.9250   42.7180 C.ar   60  HIS60       0.1154
     37  CE1       45.0360  -11.0850   43.6150 C.ar   60  HIS60       0.1986
     38  NE2       45.6280   -9.9040   43.6160 N.ar   60  HIS60      -0.2212
     39  N         46.9990   -3.7980   43.8040 N.3    67  ARG67      -0.1231
     40  CA        46.9990   -5.2530   43.9130 C.3    67  ARG67       0.1694
     41  C         45.6020   -5.8080   43.6380 C.2    67  ARG67       0.2592
     42  O         45.4570   -6.8580   43.0180 O.2    67  ARG67      -0.2718
     43  CB        47.4880   -5.7020   45.2940 C.3    67  ARG67       0.0321
     44  CG        49.0090   -5.6810   45.4430 C.3    67  ARG67       0.0489
     45  CD        49.4400   -6.2290   46.7970 C.3    67  ARG67       0.2205
     46  NE        48.9420   -5.3990   47.8890 N.pl3  67  ARG67      -0.0865
     47  CZ        49.0190   -5.7210   49.1740 C.cat  67  ARG67       0.5346
     48  NH1       49.5800   -6.8660   49.5420 N.pl3  67  ARG67       0.1354
     49  NH2       48.5230   -4.9020   50.0920 N.pl3  67  ARG67       0.1354
     50  N         44.5790   -5.0960   44.0960 N.am   68  ILE68      -0.1966
     51  CA        43.2070   -5.5250   43.8760 C.3    68  ILE68       0.1727
     52  C         42.8570   -5.3190   42.3970 C.2    68  ILE68       0.2616
     53  O         42.2020   -6.1610   41.7800 O.2    68  ILE68      -0.2715
     54  CB        42.2110   -4.7380   44.7780 C.3    68  ILE68       0.0290
     55  CG1       42.4710   -5.0560   46.2540 C.3    68  ILE68       0.0022
     56  CG2       40.7890   -5.1120   44.4350 C.3    68  ILE68       0.0023
     57  CD1       41.4840   -4.3950   47.2250 C.3    68  ILE68       0.0001
     58  N         43.2950   -4.2020   41.8260 N.am   69  PHE69      -0.1974
     59  CA        43.0280   -3.9490   40.4160 C.3    69  PHE69       0.1639
     60  C         43.5370   -5.1630   39.6430 C.2    69  PHE69       0.2290
     61  O         42.8100   -5.7690   38.8650 O.2    69  PHE69      -0.2864
     62  CB        43.7740   -2.7050   39.9400 C.3    69  PHE69       0.0560
     63  CG        43.4970   -2.3390   38.5050 C.ar   69  PHE69      -0.0200
     64  CD1       42.2890   -1.7540   38.1400 C.ar   69  PHE69      -0.0042
     65  CD2       44.4430   -2.5800   37.5170 C.ar   69  PHE69      -0.0042
     66  CE1       42.0370   -1.4160   36.8230 C.ar   69  PHE69      -0.0003
     67  CE2       44.1930   -2.2440   36.1930 C.ar   69  PHE69      -0.0003
     68  CZ        42.9950   -1.6630   35.8450 C.ar   69  PHE69      -0.0000
     69  N         44.0450   -7.9790   40.6980 N.3    71  GLY71      -0.1210
     70  CA        43.3170   -9.1740   41.0750 C.3    71  GLY71       0.1956
     71  C         42.1790   -9.3730   40.1000 C.2    71  GLY71       0.2612
     72  O         41.9080  -10.4840   39.6500 O.2    71  GLY71      -0.2717
     73  N         41.5120   -8.2760   39.7730 N.am   72  CYS72      -0.1956
     74  CA        40.4070   -8.3210   38.8440 C.3    72  CYS72       0.1843
     75  C         40.9090   -8.7140   37.4620 C.2    72  CYS72       0.2625
     76  O         40.2660   -9.4960   36.7630 O.2    72  CYS72      -0.2714
     77  CB        39.7210   -6.9610   38.7910 C.3    72  CYS72       0.0997
     78  SG        38.8880   -6.5280   40.3230 S.3    72  CYS72      -0.0797
     79  N         42.0630   -8.1780   37.0740 N.am   73  GLN73      -0.1977
     80  CA        42.6390   -8.4830   35.7710 C.3    73  GLN73       0.1601
     81  C         42.8720   -9.9780   35.6140 C.2    73  GLN73       0.2287
     82  O         42.5160  -10.5700   34.5950 O.2    73  GLN73      -0.2864
     83  CB        43.9630   -7.7370   35.5760 C.3    73  GLN73       0.0394
     84  CG        43.8270   -6.2510   35.3200 C.3    73  GLN73       0.0908
     85  CD        45.1760   -5.5740   35.1480 C.2    73  GLN73       0.2608
     86  OE1       45.9940   -5.5390   36.0690 O.2    73  GLN73      -0.2717
     87  NE2       45.4140   -5.0350   33.9630 N.am   73  GLN73      -0.0878
     88  N         41.4750  -12.4370   37.2640 N.3    75  ARG75      -0.1231
     89  CA        40.1900  -13.1060   37.2380 C.3    75  ARG75       0.1694
     90  C         39.5110  -12.8860   35.8740 C.2    75  ARG75       0.2592
     91  O         38.7360  -13.7200   35.4060 O.2    75  ARG75      -0.2718
     92  CB        39.3240  -12.5800   38.3850 C.3    75  ARG75       0.0321
     93  CG        37.8870  -13.0750   38.3920 C.3    75  ARG75       0.0489
     94  CD        37.8050  -14.5840   38.2850 C.3    75  ARG75       0.2205
     95  NE        36.4740  -14.9810   37.8440 N.pl3  75  ARG75      -0.0865
     96  CZ        36.1940  -16.1150   37.2070 C.cat  75  ARG75       0.5346
     97  NH1       37.1530  -16.9800   36.9300 N.pl3  75  ARG75       0.1354
     98  NH2       34.9470  -16.3750   36.8390 N.pl3  75  ARG75       0.1354
     99  N         39.8160  -11.7720   35.2240 N.am   76  SER76      -0.1952
    100  CA        39.2230  -11.4940   33.9240 C.3    76  SER76       0.1924
    101  C         39.7910  -12.4730   32.8930 C.2    76  SER76       0.2314
    102  O         39.0630  -12.9870   32.0340 O.2    76  SER76      -0.2863
    103  CB        39.5230  -10.0510   33.5120 C.3    76  SER76       0.2116
    104  OG        39.0820   -9.7940   32.2000 O.3    76  SER76      -0.2180
    105  N         33.1270   -9.0060   28.2060 N.3   110  HIS110     -0.1241
    106  CA        32.8600   -8.1390   29.3480 C.3   110  HIS110      0.1621
    107  C         31.3950   -8.0840   29.7600 C.2   110  HIS110      0.2264
    108  O         31.0770   -8.0600   30.9530 O.2   110  HIS110     -0.2867
    109  CB        33.4300   -6.7460   29.0960 C.3   110  HIS110      0.0745
    110  CG        34.9250   -6.7320   29.0740 C.ar  110  HIS110      0.0817
    111  ND1       35.6570   -7.1210   27.9700 N.ar  110  HIS110     -0.2268
    112  CD2       35.8260   -6.4870   30.0560 C.ar  110  HIS110      0.1154
    113  CE1       36.9430   -7.1170   28.2720 C.ar  110  HIS110      0.1986
    114  NE2       37.0730   -6.7370   29.5330 N.ar  110  HIS110     -0.2212
    115  N         30.9800  -11.1100   31.7000 N.3   113  ILE113     -0.1231
    116  CA        31.6800  -11.0070   32.9670 C.3   113  ILE113      0.1692
    117  C         30.8950  -10.1940   33.9780 C.2   113  ILE113      0.2592
    118  O         30.8220  -10.5740   35.1370 O.2   113  ILE113     -0.2718
    119  CB        33.0860  -10.3870   32.7730 C.3   113  ILE113      0.0266
    120  CG1       33.9980  -11.4090   32.0850 C.3   113  ILE113      0.0019
    121  CG2       33.6660   -9.9590   34.1050 C.3   113  ILE113      0.0020
    122  CD1       35.3420  -10.8750   31.6860 C.3   113  ILE113      0.0001
    123  N         30.2920   -9.0860   33.5480 N.am  114  TYR114     -0.1976
    124  CA        29.5290   -8.2560   34.4710 C.3   114  TYR114      0.1639
    125  C         28.1670   -8.8690   34.7290 C.2   114  TYR114      0.2290
    126  O         27.6190   -8.7340   35.8230 O.2   114  TYR114     -0.2864
    127  CB        29.3870   -6.8230   33.9330 C.3   114  TYR114      0.0560
    128  CG        30.7140   -6.1700   33.6070 C.ar  114  TYR114     -0.0198
    129  CD1       31.7960   -6.2720   34.4770 C.ar  114  TYR114     -0.0009
    130  CD2       30.8970   -5.4830   32.4120 C.ar  114  TYR114     -0.0009
    131  CE1       33.0280   -5.7120   34.1610 C.ar  114  TYR114      0.0417
    132  CE2       32.1190   -4.9210   32.0870 C.ar  114  TYR114      0.0417
    133  CZ        33.1840   -5.0390   32.9610 C.ar  114  TYR114      0.1957
    134  OH        34.4120   -4.5050   32.6160 O.3   114  TYR114     -0.2866
    135  N         28.8710  -11.4350   37.1160 N.3   117  LEU117     -0.1245
    136  CA        29.4150  -10.8580   38.3440 C.3   117  LEU117      0.1561
    137  C         28.2590  -10.6490   39.3110 C.2   117  LEU117      0.2260
    138  O         28.4070  -10.8110   40.5210 O.2   117  LEU117     -0.2867
    139  CB        30.0830   -9.5080   38.0790 C.3   117  LEU117      0.0270
    140  CG        31.5910   -9.4190   38.3470 C.3   117  LEU117      0.0019
    141  CD1       32.0350   -7.9760   38.2520 C.3   117  LEU117      0.0001
    142  CD2       31.9100   -9.9680   39.7180 C.3   117  LEU117      0.0001
    143  N         30.9370   -8.5580   47.0330 N.3   126  VAL126     -0.1231
    144  CA        31.1220   -9.5290   45.9680 C.3   126  VAL126      0.1692
    145  C         32.0420  -10.6570   46.4070 C.2   126  VAL126      0.2592
    146  O         33.0500  -10.4380   47.0750 O.2   126  VAL126     -0.2718
    147  CB        31.7360   -8.8560   44.7130 C.3   126  VAL126      0.0266
    148  CG1       33.0130   -8.1270   45.1000 C.3   126  VAL126      0.0020
    149  CG2       32.0280   -9.9090   43.6200 C.3   126  VAL126      0.0020
    150  N         31.6790  -11.8720   46.0220 N.am  127  LEU127     -0.1966
    151  CA        32.4770  -13.0400   46.3490 C.3   127  LEU127      0.1728
    152  C         33.7340  -13.0070   45.5000 C.2   127  LEU127      0.2616
    153  O         33.7360  -12.4430   44.4090 O.2   127  LEU127     -0.2715
    154  CB        31.6980  -14.3150   46.0270 C.3   127  LEU127      0.0311
    155  CG        30.5060  -14.6530   46.9210 C.3   127  LEU127      0.0022
    156  CD1       29.7740  -15.8450   46.3450 C.3   127  LEU127      0.0001
    157  CD2       30.9960  -14.9440   48.3470 C.3   127  LEU127      0.0001
    158  N         34.8100  -13.5970   45.9970 N.am  128  ILE128     -0.1963
    159  CA        36.0290  -13.6450   45.2120 C.3   128  ILE128      0.1727
    160  C         36.8370  -14.8760   45.5610 C.2   128  ILE128      0.2616
    161  O         36.5290  -15.5820   46.5220 O.2   128  ILE128     -0.2715
    162  CB        36.8860  -12.3730   45.3870 C.3   128  ILE128      0.0290
    163  CG1       38.0570  -12.4130   44.3940 C.3   128  ILE128      0.0022
    164  CG2       37.4230  -12.2810   46.8230 C.3   128  ILE128      0.0023
    165  CD1       37.7210  -13.0090   42.9680 C.3   128  ILE128      0.0001
    166  N         37.8560  -15.1420   44.7560 N.am  129  SER129     -0.1950
    167  CA        38.7220  -16.2920   44.9450 C.3   129  SER129      0.1924
    168  C         37.8960  -17.5610   45.0540 C.2   129  SER129      0.2314
    169  O         37.7920  -18.1540   46.1210 O.2   129  SER129     -0.2863
    170  CB        39.5780  -16.1080   46.1960 C.3   129  SER129      0.2116
    171  OG        40.2730  -17.3060   46.5000 O.3   129  SER129     -0.2180
    172  N         34.5970   -9.5860   49.3940 N.3   135  MET135     -0.1245
    173  CA        35.0790   -8.2260   49.5750 C.3   135  MET135      0.1570
    174  C         33.8540   -7.3260   49.6200 C.2   135  MET135      0.2261
    175  O         32.9460   -7.4820   48.8050 O.2   135  MET135     -0.2867
    176  CB        36.0020   -7.8340   48.4140 C.3   135  MET135      0.0387
    177  CG        36.7520   -6.5220   48.6070 C.3   135  MET135      0.0595
    178  SD        38.0030   -6.2530   47.3240 S.3   135  MET135     -0.1393
    179  CE        39.2780   -7.3090   47.9110 C.3   135  MET135      0.0692
    180  N         35.7120   -1.3640   48.6290 N.3   140  LEU140     -0.1245
    181  CA        36.0460   -1.1070   47.2320 C.3   140  LEU140      0.1561
    182  C         35.7250    0.3410   46.8870 C.2   140  LEU140      0.2260
    183  O         36.5130    1.0360   46.2380 O.2   140  LEU140     -0.2867
    184  CB        35.2600   -2.0490   46.3130 C.3   140  LEU140      0.0270
    185  CG        35.8070   -3.4750   46.2420 C.3   140  LEU140      0.0019
    186  CD1       34.8010   -4.4190   45.5790 C.3   140  LEU140      0.0001
    187  CD2       37.1180   -3.4380   45.4790 C.3   140  LEU140      0.0001
    188  N         35.4670    2.1840   40.2290 N.3   150  PHE150     -0.1227
    189  CA        35.3920    1.4040   39.0020 C.3   150  PHE150      0.1736
    190  C         34.4520    0.2160   39.2160 C.2   150  PHE150      0.2595
    191  O         33.8960   -0.3220   38.2610 O.2   150  PHE150     -0.2718
    192  CB        36.7970    0.9510   38.5370 C.3   150  PHE150      0.0547
    193  CG        37.3550   -0.2590   39.2630 C.ar  150  PHE150     -0.0202
    194  CD1       37.2310   -1.5330   38.7160 C.ar  150  PHE150     -0.0042
    195  CD2       38.0430   -0.1170   40.4720 C.ar  150  PHE150     -0.0042
    196  CE1       37.7810   -2.6440   39.3560 C.ar  150  PHE150     -0.0003
    197  CE2       38.5970   -1.2270   41.1200 C.ar  150  PHE150     -0.0003
    198  CZ        38.4660   -2.4900   40.5600 C.ar  150  PHE150     -0.0000
    199  N         34.2430   -0.1540   40.4790 N.am  151  MET151     -0.1979
    200  CA        33.3640   -1.2650   40.8330 C.3   151  MET151      0.1605
    201  C         31.9180   -0.8700   41.1620 C.2   151  MET151      0.2287
    202  O         30.9800   -1.6270   40.8930 O.2   151  MET151     -0.2864
    203  CB        33.9550   -2.0370   42.0130 C.3   151  MET151      0.0413
    204  CG        35.0370   -3.0210   41.6220 C.3   151  MET151      0.0598
    205  SD        34.3900   -4.2720   40.4890 S.3   151  MET151     -0.1393
    206  CE        33.4130   -5.2740   41.6130 C.3   151  MET151      0.0692
    207  N         29.0290   -1.4300   38.7630 N.3   154  LYS154     -0.1245
    208  CA        28.6780   -2.8260   38.5260 C.3   154  LYS154      0.1561
    209  C         27.8730   -3.3900   39.7010 C.2   154  LYS154      0.2260
    210  O         27.1410   -4.3720   39.5460 O.2   154  LYS154     -0.2867
    211  CB        29.9520   -3.6420   38.2860 C.3   154  LYS154      0.0271
    212  CG        30.8930   -2.9660   37.2880 C.3   154  LYS154      0.0035
    213  CD        32.2600   -3.6160   37.2590 C.3   154  LYS154      0.0206
    214  CE        33.3230   -2.6550   36.7350 C.3   154  LYS154      0.1093
    215  NZ        32.9960   -2.0680   35.4090 N.3   154  LYS154     -0.1314
    216  N         33.5140    1.3030   31.7460 N.3   236  HIS236     -0.1241
    217  CA        34.6680    0.6470   32.3610 C.3   236  HIS236      0.1621
    218  C         35.9370    0.9480   31.5610 C.2   236  HIS236      0.2264
    219  O         36.9400    1.3880   32.1260 O.2   236  HIS236     -0.2867
    220  CB        34.4380   -0.8710   32.4260 C.3   236  HIS236      0.0745
    221  CG        35.5890   -1.6460   32.9950 C.ar  236  HIS236      0.0817
    222  ND1       35.7180   -1.9120   34.3410 N.ar  236  HIS236     -0.2268
    223  CD2       36.6510   -2.2310   32.3940 C.ar  236  HIS236      0.1154
    224  CE1       36.8070   -2.6300   34.5460 C.ar  236  HIS236      0.1986
    225  NE2       37.3920   -2.8390   33.3810 N.ar  236  HIS236     -0.2212
    226  N         39.4180    2.7920   32.5620 N.3   240  LEU240     -0.1245
    227  CA        40.7360    2.2130   32.3670 C.3   240  LEU240      0.1561
    228  C         41.6580    3.2120   31.6700 C.2   240  LEU240      0.2260
    229  O         42.7920    3.4200   32.0980 O.2   240  LEU240     -0.2867
    230  CB        40.6180    0.9280   31.5380 C.3   240  LEU240      0.0270
    231  CG        41.0600   -0.3920   32.1780 C.3   240  LEU240      0.0019
    232  CD1       40.4450   -0.5490   33.5570 C.3   240  LEU240      0.0001
    233  CD2       40.6540   -1.5390   31.2780 C.3   240  LEU240      0.0001
@<TRIPOS>BOND
     1   111   113   ar
     2   111   110   ar
     3   105   106    1
     4   113   114   ar
     5   110   109    1
     6   110   112   ar
     7   109   106    1
     8   106   107    1
     9   114   112   ar
    10   107   108    2
    11   233   231    1
    12   230   231    1
    13   230   227    1
    14   218   219    2
    15   218   217    1
    16   228   229    2
    17   228   227    1
    18   122   120    1
    19   115   116    1
    20   216   217    1
    21   102   101    2
    22   120   119    1
    23   132   130   ar
    24   132   133   ar
    25   231   232    1
    26   104   103    1
    27   217   220    1
    28   227   226    1
    29   223   221   ar
    30   223   225   ar
    31   130   128   ar
    32   220   221    1
    33   134   133    1
    34   119   116    1
    35   119   121    1
    36   101   100    1
    37   133   131   ar
    38   116   117    1
    39   221   222   ar
    40   225   224   ar
    41   103   100    1
    42   123   117   am
    43   123   124    1
    44   128   127    1
    45   128   129   ar
    46   100    99    1
    47   127   124    1
    48    87    85   am
    49   117   118    2
    50   131   129   ar
    51   222   224   ar
    52   124   125    1
    53    82    81    2
    54   125   126    2
    55    85    84    1
    56    85    86    2
    57    99    90   am
    58    84    83    1
    59    91    90    2
    60   215   214    1
    61    83    80    1
    62    81    80    1
    63    80    79    1
    64    68    67   ar
    65    68    66   ar
    66    90    89    1
    67    67    65   ar
    68   214   213    1
    69    76    75    2
    70    66    64   ar
    71    98    96    1
    72    97    96    1
    73    79    75   am
    74   135   136    1
    75    96    95    2
    76    89    88    1
    77    89    92    1
    78   213   212    1
    79   212   211    1
    80    75    74    1
    81    65    63   ar
    82    95    94    1
    83   139   136    1
    84   139   140    1
    85    64    63   ar
    86   141   140    1
    87   191   190    2
    88    94    93    1
    89   211   208    1
    90   136   137    1
    91   140   142    1
    92    92    93    1
    93    63    62    1
    94   208   207    1
    95   208   209    1
    96   192   189    1
    97   192   193    1
    98   194   193   ar
    99   194   196   ar
   100    77    74    1
   101    77    78    1
   102    74    73    1
   103    61    60    2
   104   189   190    1
   105   189   188    1
   106   190   199   am
   107   193   195   ar
   108   137   138    2
   109   196   198   ar
   110   210   209    2
   111    60    59    1
   112    72    71    2
   113    73    71   am
   114    62    59    1
   115    71    70    1
   116    59    58    1
   117   195   197   ar
   118   199   200    1
   119   205   206    1
   120   205   204    1
   121   198   197   ar
   122    69    70    1
   123   200   201    1
   124   200   203    1
   125   202   201    2
   126    33    30    1
   127    33    34    1
   128   204   203    1
   129    30    29    1
   130    30    31    1
   131    53    52    2
   132    58    52   am
   133    34    36   ar
   134    34    35   ar
   135    52    51    1
   136    36    38   ar
   137    35    37   ar
   138    31    32    2
   139   165   163    1
   140    42    41    2
   141    37    38   ar
   142   149   147    1
   143    41    40    1
   144    41    50   am
   145    39    40    1
   146    51    50    1
   147    51    54    1
   148    40    43    1
   149   163   162    1
   150   153   152    2
   151    56    54    1
   152   147   148    1
   153   147   144    1
   154   166   167    1
   155   166   160   am
   156    54    55    1
   157    20    21    2
   158    20    19    1
   159   167   168    1
   160   167   170    1
   161   168   169    2
   162   159   162    1
   163   159   160    1
   164   159   158    1
   165    43    44    1
   166   162   164    1
   167    44    45    1
   168   187   185    1
   169   152   158   am
   170   152   151    1
   171   160   161    2
   172   186   185    1
   173    19    22    1
   174    19    18    1
   175   144   145    1
   176   144   143    1
   177   150   151    1
   178   150   145   am
   179   154   151    1
   180   154   155    1
   181    22    23    1
   182   170   171    1
   183   183   182    2
   184   185   184    1
   185    55    57    1
   186   184   181    1
   187   156   155    1
   188   145   146    2
   189    45    46    1
   190    23    24   ar
   191    23    25   ar
   192   182   181    1
   193   155   157    1
   194    24    26   ar
   195   181   180    1
   196    25    27   ar
   197   178   179    1
   198   178   177    1
   199    26    28   ar
   200    46    47    2
   201    27    28   ar
   202   176   177    1
   203   176   173    1
   204   175   174    2
   205    47    48    1
   206    47    49    1
   207    17    15   ar
   208    16    15   ar
   209    15    14    1
   210   172   173    1
   211    14    13    1
   212   173   174    1
   213     7     6    1
   214     8     6    1
   215    13    10    1
   216    12    11    2
   217     6     5    1
   218    10    11    1
   219    10     9    1
   220     5     2    1
   221     4     3    2
   222     2     3    1
   223     2     1    1
