@<TRIPOS>MOLECULE
tmp/1i7lB00.pdb
 213 204 0 0 0
SMALL
GASTEIGER

@<TRIPOS>ATOM
      1  N         57.0520   68.3130   13.4120 N.3    77  HIS77      -0.1241
      2  CA        55.7720   69.0360   13.4750 C.3    77  HIS77       0.1621
      3  C         54.7150   68.0720   12.9730 C.2    77  HIS77       0.2264
      4  O         54.8430   67.5460   11.8750 O.2    77  HIS77      -0.2867
      5  CB        55.7250   70.2620   12.5410 C.3    77  HIS77       0.0745
      6  CG        56.5940   71.4060   12.9720 C.ar   77  HIS77       0.0817
      7  ND1       56.4880   72.0040   14.2110 N.ar   77  HIS77      -0.2268
      8  CD2       57.5930   72.0500   12.3280 C.ar   77  HIS77       0.1154
      9  CE1       57.3850   72.9640   14.3150 C.ar   77  HIS77       0.1986
     10  NE2       58.0690   73.0110   13.1850 N.ar   77  HIS77      -0.2212
     11  N         48.5570   77.1340   15.5840 N.3   114  LYS114     -0.1245
     12  CA        49.3100   78.1790   16.3040 C.3   114  LYS114      0.1561
     13  C         48.4180   79.1400   17.1060 C.2   114  LYS114      0.2260
     14  O         48.6900   79.3940   18.2840 O.2   114  LYS114     -0.2867
     15  CB        50.1740   78.9660   15.3160 C.3   114  LYS114      0.0271
     16  CG        51.1990   78.0360   14.6010 C.3   114  LYS114      0.0035
     17  CD        52.4380   78.7790   14.1780 C.3   114  LYS114      0.0206
     18  CE        53.5000   77.8720   13.6730 C.3   114  LYS114      0.1093
     19  NZ        54.6840   78.7330   13.3120 N.3   114  LYS114     -0.1314
     20  N         53.3860   89.8650   22.6330 N.3   136  ILE136     -0.1245
     21  CA        53.2500   90.8260   21.5360 C.3   136  ILE136      0.1561
     22  C         51.7730   91.0090   21.3260 C.2   136  ILE136      0.2260
     23  O         51.0140   90.0780   21.5540 O.2   136  ILE136     -0.2867
     24  CB        53.9470   90.2680   20.2450 C.3   136  ILE136      0.0252
     25  CG1       54.1140   91.3900   19.2000 C.3   136  ILE136      0.0019
     26  CG2       53.1560   89.0620   19.7210 C.3   136  ILE136      0.0019
     27  CD1       55.0380   90.9330   17.9700 C.3   136  ILE136      0.0001
     28  N         53.3250   92.1570   10.8370 N.3   156  VAL156     -0.1245
     29  CA        53.7370   90.9280   10.1830 C.3   156  VAL156      0.1561
     30  C         52.4350   90.1040   10.1110 C.2   156  VAL156      0.2260
     31  O         51.7670   89.8590   11.1320 O.2   156  VAL156     -0.2867
     32  CB        54.7710   90.1620   10.9940 C.3   156  VAL156      0.0252
     33  CG1       54.9650   88.7590   10.3820 C.3   156  VAL156      0.0019
     34  CG2       56.1340   90.9530   10.9730 C.3   156  VAL156      0.0019
     35  N         50.7910   86.4960    9.5620 N.3   158  LYS158     -0.1245
     36  CA        51.1160   85.0650    9.5340 C.3   158  LYS158      0.1561
     37  C         49.8180   84.2950    9.2450 C.2   158  LYS158      0.2260
     38  O         48.9520   84.1990   10.1000 O.2   158  LYS158     -0.2867
     39  CB        51.6920   84.6320   10.8860 C.3   158  LYS158      0.0271
     40  CG        52.8260   85.5650   11.3780 C.3   158  LYS158      0.0035
     41  CD        53.4510   85.1840   12.7060 C.3   158  LYS158      0.0206
     42  CE        54.7830   85.9440   12.8420 C.3   158  LYS158      0.1093
     43  NZ        55.5970   85.5300   14.0330 N.3   158  LYS158     -0.1314
     44  N         55.3550   76.5080    8.8610 N.3   163  HIS163     -0.1226
     45  CA        56.6870   76.5690    9.4610 C.3   163  HIS163      0.1752
     46  C         57.8060   77.1430    8.6160 C.2   163  HIS163      0.2597
     47  O         57.6070   77.4360    7.4320 O.2   163  HIS163     -0.2718
     48  CB        57.0620   75.1520    9.9180 C.3   163  HIS163      0.0759
     49  CG        55.9710   74.5100   10.6880 C.ar  163  HIS163      0.0818
     50  ND1       55.6400   74.9080   11.9720 N.ar  163  HIS163     -0.2268
     51  CD2       55.0900   73.5330   10.3370 C.ar  163  HIS163      0.1154
     52  CE1       54.5960   74.1970   12.3720 C.ar  163  HIS163      0.1986
     53  NE2       54.2440   73.3610   11.4000 N.ar  163  HIS163     -0.2212
     54  N         58.9650   77.2910    9.2570 N.am  164  SER164     -0.1938
     55  CA        60.1560   77.8940    8.6230 C.3   164  SER164      0.2055
     56  C         59.8180   79.0700    7.6980 C.2   164  SER164      0.2643
     57  O         60.1450   79.0290    6.5020 O.2   164  SER164     -0.2714
     58  CB        60.8980   76.8430    7.8130 C.3   164  SER164      0.2130
     59  OG        61.4840   75.9100    8.7280 O.3   164  SER164     -0.2179
     60  N         59.1580   80.0910    8.2330 N.am  165  GLY165     -0.1954
     61  CA        58.8440   81.2640    7.4180 C.3   165  GLY165      0.1869
     62  C         57.6340   81.2480    6.5170 C.2   165  GLY165      0.2309
     63  O         57.1190   82.3170    6.1540 O.2   165  GLY165     -0.2863
     64  N         54.1880   83.9000    5.9360 N.3   168  LYS168     -0.1245
     65  CA        54.3770   85.1000    6.7120 C.3   168  LYS168      0.1561
     66  C         54.8700   86.2780    5.8730 C.2   168  LYS168      0.2260
     67  O         55.8630   86.1780    5.1700 O.2   168  LYS168     -0.2867
     68  CB        55.3330   84.7710    7.8290 C.3   168  LYS168      0.0271
     69  CG        54.8070   83.6550    8.7130 C.3   168  LYS168      0.0035
     70  CD        55.9400   83.1520    9.6410 C.3   168  LYS168      0.0206
     71  CE        55.4760   82.1800   10.7310 C.3   168  LYS168      0.1093
     72  NZ        54.9320   80.9200   10.1950 N.3   168  LYS168     -0.1314
     73  N         50.3340   91.0770   13.7640 N.3   194  GLU194     -0.1231
     74  CA        50.9800   91.5600   14.9810 C.3   194  GLU194      0.1684
     75  C         51.9960   92.6260   14.5190 C.2   194  GLU194      0.2434
     76  O         52.5270   92.5500   13.4100 O.2   194  GLU194     -0.2733
     77  CB        51.7280   90.4100   15.7090 C.3   194  GLU194      0.0402
     78  CG        52.9570   89.9300   14.9580 C.3   194  GLU194      0.1161
     79  CD        53.4260   88.4830   15.2990 C.2   194  GLU194      0.3649
     80  OE1       52.5730   87.5820   15.4780 O.co2 194  GLU194     -0.2457
     81  OE2       54.6630   88.2510   15.3820 O.co2 194  GLU194     -0.2457
     82  N         52.2870   93.6220   15.3830 N.am  195  PRO195     -0.2718
     83  CA        53.2430   94.6700   14.9870 C.3   195  PRO195      0.1535
     84  C         54.5890   94.1710   14.5390 C.2   195  PRO195      0.2599
     85  O         55.1590   93.2680   15.1340 O.2   195  PRO195     -0.2715
     86  CB        53.3090   95.5910   16.2070 C.3   195  PRO195      0.0310
     87  CG        52.7540   94.6490   17.3800 C.3   195  PRO195      0.0237
     88  CD        51.7130   93.8540   16.7280 C.3   195  PRO195      0.0939
     89  N         55.0890   94.7550   13.4580 N.am  196  PHE196     -0.1960
     90  CA        56.3970   94.3910   12.9800 C.3   196  PHE196      0.1771
     91  C         57.3750   95.1140   13.8910 C.2   196  PHE196      0.2619
     92  O         57.4000   96.3480   13.9140 O.2   196  PHE196     -0.2715
     93  CB        56.6470   94.8580   11.5500 C.3   196  PHE196      0.0574
     94  CG        58.1010   94.7080   11.1260 C.ar  196  PHE196     -0.0200
     95  CD1       58.6880   93.4570   11.0820 C.ar  196  PHE196     -0.0042
     96  CD2       58.8720   95.8170   10.7960 C.ar  196  PHE196     -0.0042
     97  CE1       60.0190   93.2840   10.7200 C.ar  196  PHE196     -0.0003
     98  CE2       60.2320   95.6770   10.4240 C.ar  196  PHE196     -0.0003
     99  CZ        60.8200   94.4100   10.3810 C.ar  196  PHE196     -0.0000
    100  N         58.1720   94.3520   14.6380 N.am  197  ILE197     -0.1977
    101  CA        59.1120   94.9600   15.5300 C.3   197  ILE197      0.1596
    102  C         60.4370   95.2130   14.7780 C.2   197  ILE197      0.2287
    103  O         60.9590   94.3000   14.0770 O.2   197  ILE197     -0.2864
    104  CB        59.3930   94.0390   16.7630 C.3   197  ILE197      0.0276
    105  CG1       58.1270   93.7720   17.5830 C.3   197  ILE197      0.0022
    106  CG2       60.3590   94.7350   17.6670 C.3   197  ILE197      0.0022
    107  CD1       57.3690   95.0120   17.9500 C.3   197  ILE197      0.0001
    108  N         63.8940   95.0210   14.9720 N.3   199  ALA199     -0.1245
    109  CA        64.6840   94.3210   15.9700 C.3   199  ALA199      0.1562
    110  C         66.2130   94.2790   15.9740 C.2   199  ALA199      0.2260
    111  O         66.8790   94.2360   14.9230 O.2   199  ALA199     -0.2867
    112  CB        64.1800   92.8870   16.0160 C.3   199  ALA199      0.0290
    113  N         66.8770   88.1010   17.7470 N.3   202  ASP202     -0.1239
    114  CA        65.9210   87.0880   18.2210 C.3   202  ASP202      0.1674
    115  C         66.3860   86.5350   19.5740 C.2   202  ASP202      0.2266
    116  O         67.5810   86.5730   19.8910 O.2   202  ASP202     -0.2867
    117  CB        65.8260   85.8970   17.2590 C.3   202  ASP202      0.1410
    118  CG        64.8010   86.1010   16.1830 C.2   202  ASP202      0.3668
    119  OD1       64.9600   87.0770   15.4100 O.co2 202  ASP202     -0.2456
    120  OD2       63.8360   85.2940   16.1060 O.co2 202  ASP202     -0.2456
    121  N         69.9220   85.5570   18.4750 N.3   217  ARG217     -0.1245
    122  CA        70.1580   85.3010   17.0640 C.3   217  ARG217      0.1563
    123  C         70.0380   86.5420   16.1960 C.2   217  ARG217      0.2260
    124  O         68.9510   87.0890   15.9830 O.2   217  ARG217     -0.2867
    125  CB        69.1770   84.2550   16.5410 C.3   217  ARG217      0.0307
    126  CG        69.4930   83.8050   15.1240 C.3   217  ARG217      0.0489
    127  CD        68.5420   82.7350   14.6120 C.3   217  ARG217      0.2205
    128  NE        67.1460   83.1550   14.7010 N.pl3 217  ARG217     -0.0865
    129  CZ        66.1120   82.4440   14.2490 C.cat 217  ARG217      0.5346
    130  NH1       66.3190   81.2650   13.6650 N.pl3 217  ARG217      0.1354
    131  NH2       64.8690   82.9100   14.3850 N.pl3 217  ARG217      0.1354
    132  N         64.3250   90.2560    7.2750 N.3   224  TRP224     -0.1227
    133  CA        63.7490   90.4190    8.6180 C.3   224  TRP224      0.1737
    134  C         63.3660   89.0320    9.1810 C.2   224  TRP224      0.2595
    135  O         63.3230   88.8330   10.3950 O.2   224  TRP224     -0.2718
    136  CB        62.5010   91.3510    8.5850 C.3   224  TRP224      0.0564
    137  CG        61.3670   90.8590    7.7210 C.ar  224  TRP224      0.0003
    138  CD1       61.1680   91.0970    6.3700 C.ar  224  TRP224      0.0946
    139  CD2       60.3080   90.0150    8.1420 C.ar  224  TRP224      0.0152
    140  NE1       60.0300   90.4310    5.9280 N.ar  224  TRP224     -0.2442
    141  CE2       59.4850   89.7600    6.9980 C.ar  224  TRP224      0.0810
    142  CE3       59.9660   89.4380    9.3700 C.ar  224  TRP224      0.0012
    143  CZ2       58.3460   88.9500    7.0620 C.ar  224  TRP224      0.0191
    144  CZ3       58.8270   88.6240    9.4360 C.ar  224  TRP224      0.0001
    145  CH2       58.0350   88.3910    8.2860 C.ar  224  TRP224      0.0015
    146  N         63.0910   88.0690    8.3170 N.am  225  LYS225     -0.1966
    147  CA        62.7670   86.7310    8.8180 C.3   225  LYS225      0.1728
    148  C         64.1390   86.1400    9.0790 C.2   225  LYS225      0.2617
    149  O         64.7360   85.5370    8.1890 O.2   225  LYS225     -0.2715
    150  CB        62.0510   85.8860    7.7650 C.3   225  LYS225      0.0311
    151  CG        60.5120   86.0450    7.6260 C.3   225  LYS225      0.0038
    152  CD        60.0620   85.1740    6.4300 C.3   225  LYS225      0.0206
    153  CE        58.5860   85.2390    6.1400 C.3   225  LYS225      0.1093
    154  NZ        58.2650   84.6400    4.8300 N.3   225  LYS225     -0.1314
    155  N         64.6290   86.3190   10.3000 N.am  226  THR226     -0.1937
    156  CA        65.9610   85.8830   10.6830 C.3   226  THR226      0.2028
    157  C         66.3110   84.3950   10.6130 C.2   226  THR226      0.2642
    158  O         67.4060   84.0410   11.0240 O.2   226  THR226     -0.2714
    159  CB        66.3040   86.3730   12.1480 C.3   226  THR226      0.1808
    160  OG1       66.0800   87.7860   12.2730 O.3   226  THR226     -0.2208
    161  CG2       67.7370   86.1480   12.4540 C.3   226  THR226      0.0379
    162  N         65.4310   83.5220   10.1150 N.am  227  ASN227     -0.1971
    163  CA        65.7650   82.0870   10.0280 C.3   227  ASN227      0.1688
    164  C         66.0320   81.7830    8.5560 C.2   227  ASN227      0.2292
    165  O         65.7830   82.6370    7.7260 O.2   227  ASN227     -0.2864
    166  CB        64.5900   81.2310   10.5890 C.3   227  ASN227      0.1181
    167  CG        63.2020   81.6820   10.0730 C.2   227  ASN227      0.2629
    168  OD1       62.9890   82.8700    9.8130 O.2   227  ASN227     -0.2716
    169  ND2       62.2620   80.7320    9.9320 N.am  227  ASN227     -0.0877
    170  N         59.7480   82.0750   21.9170 N.3   262  LYS262     -0.1245
    171  CA        60.3750   82.9090   20.8970 C.3   262  LYS262      0.1561
    172  C         60.0110   84.3570   21.1350 C.2   262  LYS262      0.2260
    173  O         58.8390   84.6880   21.3490 O.2   262  LYS262     -0.2867
    174  CB        59.8960   82.5740   19.5030 C.3   262  LYS262      0.0271
    175  CG        60.3790   81.3090   18.8580 C.3   262  LYS262      0.0035
    176  CD        59.8810   81.2960   17.3830 C.3   262  LYS262      0.0206
    177  CE        59.9130   79.8910   16.7710 C.3   262  LYS262      0.1093
    178  NZ        59.2300   79.7950   15.4060 N.3   262  LYS262     -0.1314
    179  N         61.3840   88.6980   20.1010 N.3   264  VAL264     -0.1245
    180  CA        62.2190   89.6100   19.3450 C.3   264  VAL264      0.1561
    181  C         62.5910   90.6990   20.3450 C.2   264  VAL264      0.2260
    182  O         61.6960   91.1520   21.0890 O.2   264  VAL264     -0.2867
    183  CB        61.4340   90.2730   18.1740 C.3   264  VAL264      0.0252
    184  CG1       61.3910   89.3870   16.9820 C.3   264  VAL264      0.0019
    185  CG2       59.9880   90.5690   18.6430 C.3   264  VAL264      0.0019
    186  N         56.4700   86.1880   20.8860 N.3   274  PHE274     -0.1227
    187  CA        55.5180   86.0020   19.8110 C.3   274  PHE274      0.1736
    188  C         55.1070   84.6130   19.4820 C.2   274  PHE274      0.2595
    189  O         54.2100   84.4200   18.6510 O.2   274  PHE274     -0.2718
    190  CB        56.0020   86.6560   18.5030 C.3   274  PHE274      0.0547
    191  CG        57.2850   86.0830   17.9460 C.ar  274  PHE274     -0.0202
    192  CD1       58.5390   86.6030   18.3330 C.ar  274  PHE274     -0.0042
    193  CD2       57.2580   85.0460   17.0210 C.ar  274  PHE274     -0.0042
    194  CE1       59.7120   86.1010   17.8020 C.ar  274  PHE274     -0.0003
    195  CE2       58.4460   84.5430   16.4910 C.ar  274  PHE274     -0.0003
    196  CZ        59.6590   85.0710   16.8800 C.ar  274  PHE274     -0.0000
    197  N         55.7330   83.6390   20.1270 N.am  275  GLU275     -0.1979
    198  CA        55.4040   82.2260   19.8730 C.3   275  GLU275      0.1602
    199  C         56.0210   81.2650   20.8880 C.2   275  GLU275      0.2287
    200  O         57.0680   81.5440   21.4550 O.2   275  GLU275     -0.2864
    201  CB        55.8850   81.7970   18.4780 C.3   275  GLU275      0.0415
    202  CG        55.4020   80.3640   18.0550 C.3   275  GLU275      0.1163
    203  CD        55.9770   79.8240   16.7230 C.2   275  GLU275      0.3649
    204  OE1       55.9940   80.5110   15.6720 O.co2 275  GLU275     -0.2457
    205  OE2       56.4190   78.6700   16.7370 O.co2 275  GLU275     -0.2457
    206  N         57.0730   77.0930   21.1780 N.3   277  MET277     -0.1245
    207  CA        57.2370   75.8790   20.3850 C.3   277  MET277      0.1570
    208  C         57.2780   74.7580   21.3930 C.2   277  MET277      0.2261
    209  O         57.6080   74.9920   22.5610 O.2   277  MET277     -0.2867
    210  CB        58.5460   75.8910   19.6200 C.3   277  MET277      0.0387
    211  CG        58.6160   76.9230   18.5390 C.3   277  MET277      0.0595
    212  SD        60.1250   76.6510   17.5740 S.3   277  MET277     -0.1393
    213  CE        61.3350   77.4870   18.6320 C.3   277  MET277      0.0692
@<TRIPOS>BOND
     1   154   153    1
     2    67    66    2
     3    66    65    1
     4   140   138   ar
     5   140   141   ar
     6    64    65    1
     7   153   152    1
     8    63    62    2
     9   138   137   ar
    10   152   151    1
    11    57    56    2
    12    62    61    1
    13    65    68    1
    14   141   143   ar
    15   141   139   ar
    16   143   145   ar
    17   132   133    1
    18    61    60    1
    19    47    46    2
    20   151   150    1
    21    56    60   am
    22    56    55    1
    23   137   139   ar
    24   137   136    1
    25   165   164    2
    26   150   147    1
    27    58    55    1
    28    58    59    1
    29    68    69    1
    30   139   142   ar
    31   149   148    2
    32   145   144   ar
    33   146   147    1
    34   146   134   am
    35   164   163    1
    36   136   133    1
    37    46    54   am
    38    46    45    1
    39   133   134    1
    40    55    54    1
    41    69    70    1
    42   147   148    1
    43    44    45    1
    44   148   155   am
    45   134   135    2
    46    37    36    1
    47    37    38    2
    48   142   144   ar
    49    45    48    1
    50    36    35    1
    51    36    39    1
    52    70    71    1
    53   168   167    2
    54    48    49    1
    55   169   167   am
    56   163   162    1
    57   163   166    1
    58   167   166    1
    59    30    29    1
    60    30    31    2
    61   162   157   am
    62    29    28    1
    63    29    32    1
    64    72    71    1
    65   155   156    1
    66    51    49   ar
    67    51    53   ar
    68    99    98   ar
    69    99    97   ar
    70    33    32    1
    71    98    96   ar
    72   157   156    1
    73   157   158    2
    74   156   159    1
    75    49    50   ar
    76    97    95   ar
    77    96    94   ar
    78    39    40    1
    79    34    32    1
    80    95    94   ar
    81    94    93    1
    82    40    41    1
    83    53    52   ar
    84    93    90    1
    85     4     3    2
    86    50    52   ar
    87   159   160    1
    88   159   161    1
    89     8     6   ar
    90     8    10   ar
    91     5     6    1
    92     5     2    1
    93    41    42    1
    94    42    43    1
    95     6     7   ar
    96     3     2    1
    97    90    89    1
    98    90    91    1
    99    10     9   ar
   100    19    18    1
   101    76    75    2
   102     1     2    1
   103    89    84   am
   104   130   129    1
   105    18    17    1
   106    73    74    1
   107    91    92    2
   108    91   100   am
   109   103   102    2
   110    17    16    1
   111     7     9   ar
   112   129   131    1
   113   129   128    2
   114    75    74    1
   115    75    82   am
   116    84    83    1
   117    84    85    2
   118    16    15    1
   119   127   128    1
   120   127   126    1
   121   100   101    1
   122   102   101    1
   123   111   110    2
   124    78    79    1
   125    78    77    1
   126   108   109    1
   127    74    77    1
   128    83    82    1
   129    83    86    1
   130   126   125    1
   131    79    81   ar
   132    79    80   ar
   133    15    12    1
   134    82    88    1
   135   178   177    1
   136   119   118   ar
   137   101   104    1
   138    11    12    1
   139   204   203   ar
   140   109   110    1
   141   109   112    1
   142   124   123    2
   143   120   118   ar
   144   118   117    1
   145   123   122    1
   146    86    87    1
   147    12    13    1
   148   195   196   ar
   149   195   193   ar
   150   125   122    1
   151   203   205   ar
   152   203   202    1
   153    88    87    1
   154   104   105    1
   155   104   106    1
   156   177   176    1
   157   196   194   ar
   158   184   183    1
   159   193   191   ar
   160   122   121    1
   161    13    14    2
   162   117   114    1
   163   176   175    1
   164   212   211    1
   165   212   213    1
   166   105   107    1
   167   113   114    1
   168   194   192   ar
   169   191   192   ar
   170   191   190    1
   171    27    25    1
   172   202   201    1
   173   183   185    1
   174   183   180    1
   175   114   115    1
   176   201   198    1
   177   190   187    1
   178   211   210    1
   179   189   188    2
   180   175   174    1
   181    25    24    1
   182   180   179    1
   183   180   181    1
   184   188   187    1
   185   188   197   am
   186   174   171    1
   187   115   116    2
   188   210   207    1
   189    26    24    1
   190   187   186    1
   191   198   197    1
   192   198   199    1
   193    24    21    1
   194   181   182    2
   195   207   206    1
   196   207   208    1
   197   199   200    2
   198   171   172    1
   199   171   170    1
   200   172   173    2
   201    22    21    1
   202    22    23    2
   203   208   209    2
   204    21    20    1
