@<TRIPOS>MOLECULE
tmp/1i7zC00.pdb
 122 120 0 0 0
SMALL
GASTEIGER

@<TRIPOS>ATOM
      1  N         59.3970   34.3640   -0.8050 N.3    34  TYR34      -0.1241
      2  CA        59.9860   33.8690    0.4250 C.3    34  TYR34       0.1605
      3  C         60.1160   34.8480    1.5840 C.2    34  TYR34       0.2264
      4  O         60.7610   35.8940    1.4810 O.2    34  TYR34      -0.2867
      5  CB        61.3580   33.2560    0.1280 C.3    34  TYR34       0.0534
      6  CG        61.3020   32.0540   -0.7910 C.ar   34  TYR34      -0.0201
      7  CD1       61.1820   32.2070   -2.1770 C.ar   34  TYR34      -0.0009
      8  CD2       61.3510   30.7600   -0.2740 C.ar   34  TYR34      -0.0009
      9  CE1       61.1130   31.0990   -3.0190 C.ar   34  TYR34       0.0417
     10  CE2       61.2800   29.6470   -1.1070 C.ar   34  TYR34       0.0417
     11  CZ        61.1620   29.8230   -2.4740 C.ar   34  TYR34       0.1957
     12  OH        61.0870   28.7170   -3.2840 O.3    34  TYR34      -0.2866
     13  N         61.7110   34.8170    4.8770 N.3    36  TYR36      -0.1241
     14  CA        62.7060   34.1110    5.6630 C.3    36  TYR36       0.1605
     15  C         62.6900   34.3130    7.1750 C.2    36  TYR36       0.2264
     16  O         63.6800   34.7470    7.7490 O.2    36  TYR36      -0.2867
     17  CB        64.1020   34.4330    5.1230 C.3    36  TYR36       0.0534
     18  CG        64.2880   34.0570    3.6750 C.ar   36  TYR36      -0.0201
     19  CD1       64.1480   32.7330    3.2520 C.ar   36  TYR36      -0.0009
     20  CD2       64.5980   35.0230    2.7210 C.ar   36  TYR36      -0.0009
     21  CE1       64.3110   32.3840    1.9170 C.ar   36  TYR36       0.0417
     22  CE2       64.7640   34.6860    1.3810 C.ar   36  TYR36       0.0417
     23  CZ        64.6170   33.3650    0.9870 C.ar   36  TYR36       0.1957
     24  OH        64.7580   33.0340   -0.3430 O.3    36  TYR36      -0.2866
     25  N         61.6690   32.2860   10.8880 N.3    38  HIS38      -0.1241
     26  CA        61.3240   31.0030   11.4860 C.3    38  HIS38       0.1621
     27  C         61.1130   31.1760   12.9860 C.2    38  HIS38       0.2264
     28  O         61.5930   32.1410   13.5770 O.2    38  HIS38      -0.2867
     29  CB        62.4440   30.0110   11.2100 C.3    38  HIS38       0.0745
     30  CG        63.0020   30.1240    9.8280 C.ar   38  HIS38       0.0817
     31  ND1       62.3010   29.7300    8.7090 N.ar   38  HIS38      -0.2268
     32  CD2       64.1600   30.6600    9.3770 C.ar   38  HIS38       0.1154
     33  CE1       63.0000   30.0210    7.6280 C.ar   38  HIS38       0.1986
     34  NE2       64.1330   30.5870    8.0040 N.ar   38  HIS38      -0.2212
     35  N         61.1420   29.2700   16.9170 N.3    40  TYR40      -0.1241
     36  CA        61.6600   28.1950   17.7450 C.3    40  TYR40       0.1605
     37  C         61.1080   28.2200   19.1600 C.2    40  TYR40       0.2264
     38  O         60.8120   29.2850   19.7070 O.2    40  TYR40      -0.2867
     39  CB        63.1760   28.2940   17.7970 C.3    40  TYR40       0.0534
     40  CG        63.8830   27.5620   16.6870 C.ar   40  TYR40      -0.0201
     41  CD1       64.0560   26.1800   16.7500 C.ar   40  TYR40      -0.0009
     42  CD2       64.4170   28.2460   15.5930 C.ar   40  TYR40      -0.0009
     43  CE1       64.7450   25.4990   15.7660 C.ar   40  TYR40       0.0417
     44  CE2       65.1090   27.5650   14.5950 C.ar   40  TYR40       0.0417
     45  CZ        65.2670   26.1860   14.6970 C.ar   40  TYR40       0.1957
     46  OH        65.9490   25.4780   13.7400 O.3    40  TYR40      -0.2866
     47  N         62.2540   23.5490   16.3480 N.3    50  LEU50      -0.1245
     48  CA        61.6180   24.2910   15.2620 C.3    50  LEU50       0.1561
     49  C         60.0950   24.1640   15.2830 C.2    50  LEU50       0.2260
     50  O         59.5560   23.0580   15.2760 O.2    50  LEU50      -0.2867
     51  CB        62.1590   23.8050   13.9170 C.3    50  LEU50       0.0270
     52  CG        61.7340   24.5760   12.6650 C.3    50  LEU50       0.0019
     53  CD1       62.3120   25.9970   12.6830 C.3    50  LEU50       0.0001
     54  CD2       62.2230   23.8210   11.4480 C.3    50  LEU50       0.0001
     55  N         58.5390   27.4650    9.9120 N.3    53  TYR53      -0.1227
     56  CA        59.5860   27.8520    8.9760 C.3    53  TYR53       0.1736
     57  C         58.9320   28.6640    7.8500 C.2    53  TYR53       0.2595
     58  O         57.7580   28.4650    7.5280 O.2    53  TYR53      -0.2718
     59  CB        60.3380   26.6220    8.4420 C.3    53  TYR53       0.0548
     60  CG        59.5290   25.6620    7.6080 C.ar   53  TYR53      -0.0200
     61  CD1       59.3880   25.8520    6.2320 C.ar   53  TYR53      -0.0009
     62  CD2       58.9230   24.5430    8.1900 C.ar   53  TYR53      -0.0009
     63  CE1       58.6690   24.9490    5.4540 C.ar   53  TYR53       0.0417
     64  CE2       58.1960   23.6320    7.4210 C.ar   53  TYR53       0.0417
     65  CZ        58.0770   23.8410    6.0530 C.ar   53  TYR53       0.1957
     66  OH        57.3950   22.9340    5.2820 O.3    53  TYR53      -0.2866
     67  N         59.6870   29.5850    7.2620 N.am   54  LEU54      -0.1980
     68  CA        59.1430   30.4410    6.2200 C.3    54  LEU54       0.1596
     69  C         57.8650   31.1150    6.6910 C.2    54  LEU54       0.2287
     70  O         56.8390   31.0330    6.0290 O.2    54  LEU54      -0.2864
     71  CB        58.8530   29.6540    4.9420 C.3    54  LEU54       0.0297
     72  CG        60.0260   29.4640    3.9800 C.3    54  LEU54       0.0022
     73  CD1       59.4830   29.0260    2.6270 C.3    54  LEU54       0.0001
     74  CD2       60.7970   30.7630    3.8210 C.3    54  LEU54       0.0001
     75  N         63.7990   33.5780   14.3120 N.3    93  LEU93      -0.1245
     76  CA        65.1210   33.3810   13.7560 C.3    93  LEU93       0.1561
     77  C         65.0510   33.6970   12.2900 C.2    93  LEU93       0.2260
     78  O         64.0860   33.3460   11.6050 O.2    93  LEU93      -0.2867
     79  CB        65.5800   31.9280   13.9130 C.3    93  LEU93       0.0270
     80  CG        66.8050   31.6270   13.0330 C.3    93  LEU93       0.0019
     81  CD1       68.0710   32.1070   13.7360 C.3    93  LEU93       0.0001
     82  CD2       66.8890   30.1490   12.7270 C.3    93  LEU93       0.0001
     83  N         67.0220   33.4610    8.5410 N.3    95  SER95      -0.1202
     84  CA        68.0070   32.7500    7.7420 C.3    95  SER95       0.2020
     85  C         67.3470   32.2050    6.4920 C.2    95  SER95       0.2619
     86  O         66.1150   32.1300    6.3920 O.2    95  SER95      -0.2717
     87  CB        68.6600   31.5890    8.5130 C.3    95  SER95       0.2103
     88  OG        67.8970   30.4060    8.4070 O.3    95  SER95      -0.2182
     89  N         68.1930   31.8230    5.5460 N.am   96  ARG96      -0.1965
     90  CA        67.7590   31.2590    4.2850 C.3    96  ARG96       0.1729
     91  C         68.1830   29.7870    4.2660 C.2    96  ARG96       0.2616
     92  O         68.5310   29.2360    5.3170 O.2    96  ARG96      -0.2715
     93  CB        68.3970   32.0640    3.1540 C.3    96  ARG96       0.0348
     94  CG        67.9030   33.5070    3.1700 C.3    96  ARG96       0.0492
     95  CD        68.6450   34.4240    2.2200 C.3    96  ARG96       0.2205
     96  NE        67.9540   35.7080    2.1030 N.pl3  96  ARG96      -0.0865
     97  CZ        68.5260   36.8420    1.7120 C.cat  96  ARG96       0.5346
     98  NH1       69.8140   36.8670    1.3960 N.pl3  96  ARG96       0.1354
     99  NH2       67.8070   37.9540    1.6360 N.pl3  96  ARG96       0.1354
    100  N         68.1550   29.1500    3.0960 N.am   97  GLU97      -0.1977
    101  CA        68.5290   27.7400    2.9980 C.3    97  GLU97       0.1602
    102  C         69.8630   27.4450    3.6860 C.2    97  GLU97       0.2287
    103  O         70.0500   26.3790    4.2640 O.2    97  GLU97      -0.2864
    104  CB        68.5710   27.2950    1.5360 C.3    97  GLU97       0.0415
    105  CG        67.1900   27.1430    0.8970 C.3    97  GLU97       0.1163
    106  CD        66.6330   28.4480    0.3590 C.2    97  GLU97       0.3649
    107  OE1       67.0810   29.5200    0.8090 O.co2  97  GLU97      -0.2457
    108  OE2       65.7360   28.3990   -0.5100 O.co2  97  GLU97      -0.2457
    109  N         72.6640   33.1460   10.4120 N.3   101  TRP101     -0.1241
    110  CA        71.5050   33.0650   11.2910 C.3   101  TRP101      0.1605
    111  C         71.4870   34.3010   12.1760 C.2   101  TRP101      0.2264
    112  O         72.5320   34.8470   12.4820 O.2   101  TRP101     -0.2867
    113  CB        71.6330   31.8680   12.2180 C.3   101  TRP101      0.0550
    114  CG        71.2110   30.5530   11.6720 C.ar  101  TRP101      0.0003
    115  CD1       71.1490   30.1720   10.3570 C.ar  101  TRP101      0.0946
    116  CD2       70.8590   29.4050   12.4410 C.ar  101  TRP101      0.0152
    117  NE1       70.7820   28.8500   10.2670 N.ar  101  TRP101     -0.2442
    118  CE2       70.5970   28.3560   11.5330 C.ar  101  TRP101      0.0810
    119  CE3       70.7390   29.1590   13.8180 C.ar  101  TRP101      0.0012
    120  CZ2       70.2220   27.0750   11.9570 C.ar  101  TRP101      0.0191
    121  CZ3       70.3650   27.8840   14.2410 C.ar  101  TRP101      0.0001
    122  CH2       70.1130   26.8600   13.3100 C.ar  101  TRP101      0.0015
@<TRIPOS>BOND
     1    12    11    1
     2     9    11   ar
     3     9     7   ar
     4    11    10   ar
     5     7     6   ar
     6    10     8   ar
     7     1     2    1
     8     6     8   ar
     9     6     5    1
    10   108   106   ar
    11    24    23    1
    12     5     2    1
    13   106   107   ar
    14   106   105    1
    15     2     3    1
    16   105   104    1
    17    23    22   ar
    18    23    21   ar
    19    22    20   ar
    20    98    97    1
    21     4     3    2
    22   104   101    1
    23    99    97    1
    24    97    96    2
    25    21    19   ar
    26    96    95    1
    27    95    94    1
    28    73    72    1
    29    20    18   ar
    30   101   100    1
    31   101   102    1
    32   100    91   am
    33    93    94    1
    34    93    90    1
    35    19    18   ar
    36    18    17    1
    37   102   103    2
    38    74    72    1
    39    72    71    1
    40    91    90    1
    41    91    92    2
    42    90    89    1
    43    13    14    1
    44    71    68    1
    45    17    14    1
    46    66    65    1
    47    63    65   ar
    48    63    61   ar
    49    89    85   am
    50    14    15    1
    51    70    69    2
    52    65    64   ar
    53    68    69    1
    54    68    67    1
    55    61    60   ar
    56    86    85    2
    57    85    84    1
    58    15    16    2
    59    67    57   am
    60    64    62   ar
    61    58    57    2
    62    60    62   ar
    63    60    59    1
    64    33    34   ar
    65    33    31   ar
    66    84    87    1
    67    84    83    1
    68    57    56    1
    69    34    32   ar
    70    88    87    1
    71    59    56    1
    72    31    30   ar
    73    56    55    1
    74    32    30   ar
    75    30    29    1
    76   117   115   ar
    77   117   118   ar
    78   115   114   ar
    79   109   110    1
    80    25    26    1
    81    29    26    1
    82   110   111    1
    83   110   113    1
    84    54    52    1
    85    26    27    1
    86   118   120   ar
    87   118   116   ar
    88    78    77    2
    89   114   113    1
    90   114   116   ar
    91   120   122   ar
    92   111   112    2
    93    77    76    1
    94   116   119   ar
    95    52    53    1
    96    52    51    1
    97    82    80    1
    98    27    28    2
    99    80    81    1
   100    80    79    1
   101   122   121   ar
   102    46    45    1
   103    76    79    1
   104    76    75    1
   105   119   121   ar
   106    51    48    1
   107    44    45   ar
   108    44    42   ar
   109    45    43   ar
   110    48    49    1
   111    48    47    1
   112    50    49    2
   113    42    40   ar
   114    43    41   ar
   115    40    41   ar
   116    40    39    1
   117    35    36    1
   118    36    39    1
   119    36    37    1
   120    37    38    2
