@<TRIPOS>MOLECULE
tmp/1i80A01.pdb
 88 84 0 0 0
SMALL
GASTEIGER

@<TRIPOS>ATOM
      1  N         -1.6830   10.4420    5.5650 N.3    34  SER34      -0.1217
      2  CA        -0.8660    9.2320    5.5250 C.3    34  SER34       0.1889
      3  C         -1.1520    8.4580    6.8010 C.2    34  SER34       0.2288
      4  O         -1.2720    9.0480    7.8750 O.2    34  SER34      -0.2866
      5  CB         0.6210    9.5820    5.4540 C.3    34  SER34       0.2089
      6  OG         1.0210   10.3190    6.5930 O.3    34  SER34      -0.2183
      7  N          2.4620   15.3020   -1.8370 N.3    88  HIS88      -0.1241
      8  CA         2.9180   16.3430   -0.9270 C.3    88  HIS88       0.1621
      9  C          4.0140   17.1430   -1.6080 C.2    88  HIS88       0.2264
     10  O          4.6340   16.6650   -2.5540 O.2    88  HIS88      -0.2867
     11  CB         3.4690   15.7420    0.3760 C.3    88  HIS88       0.0745
     12  CG         2.4710   14.9390    1.1530 C.ar   88  HIS88       0.0817
     13  ND1        2.3220   13.5770    0.9920 N.ar   88  HIS88      -0.2268
     14  CD2        1.5700   15.3060    2.0940 C.ar   88  HIS88       0.1154
     15  CE1        1.3730   13.1410    1.8010 C.ar   88  HIS88       0.1986
     16  NE2        0.9000   14.1700    2.4810 N.ar   88  HIS88      -0.2212
     17  N          6.9760   17.7570   -0.6800 N.3    90  TYR90      -0.1241
     18  CA         8.2940   17.1180   -0.6340 C.3    90  TYR90       0.1605
     19  C          8.5710   16.1550   -1.7770 C.2    90  TYR90       0.2264
     20  O          9.7190   15.7680   -1.9930 O.2    90  TYR90      -0.2867
     21  CB         8.5350   16.4080    0.7060 C.3    90  TYR90       0.0534
     22  CG         7.5690   15.3090    1.0640 C.ar   90  TYR90      -0.0201
     23  CD1        7.5300   14.1130    0.3450 C.ar   90  TYR90      -0.0009
     24  CD2        6.7240   15.4440    2.1660 C.ar   90  TYR90      -0.0009
     25  CE1        6.6710   13.0760    0.7200 C.ar   90  TYR90       0.0417
     26  CE2        5.8670   14.4150    2.5480 C.ar   90  TYR90       0.0417
     27  CZ         5.8480   13.2410    1.8210 C.ar   90  TYR90       0.1957
     28  OH         4.9890   12.2420    2.2040 O.3    90  TYR90      -0.2866
     29  N         -4.6700   14.6880    8.5220 N.3   117  ASN117     -0.1225
     30  CA        -3.2390   14.4510    8.4560 C.3   117  ASN117      0.1785
     31  C         -2.7080   13.7460    9.6970 C.2   117  ASN117      0.2597
     32  O         -3.4290   13.5510   10.6740 O.2   117  ASN117     -0.2718
     33  CB        -2.4920   15.7850    8.2360 C.3   117  ASN117      0.1169
     34  CG        -2.6450   16.7580    9.4020 C.2   117  ASN117      0.2627
     35  OD1       -3.0220   17.9190    9.2120 O.2   117  ASN117     -0.2716
     36  ND2       -2.3380   16.2970   10.6040 N.am  117  ASN117     -0.0877
     37  N         -1.4510   13.3300    9.6240 N.am  118  ALA118     -0.1979
     38  CA        -0.7810   12.6920   10.7410 C.3   118  ALA118      0.1597
     39  C          0.1600   13.7840   11.2130 C.2   118  ALA118      0.2287
     40  O          0.7560   14.4730   10.3980 O.2   118  ALA118     -0.2864
     41  CB         0.0060   11.4660   10.2730 C.3   118  ALA118      0.0319
     42  N         12.2150   14.5550    9.3270 N.3   186  TYR186     -0.1241
     43  CA        11.4820   14.9360   10.5350 C.3   186  TYR186      0.1605
     44  C         12.2640   16.0640   11.2150 C.2   186  TYR186      0.2264
     45  O         13.3890   16.3770   10.8080 O.2   186  TYR186     -0.2867
     46  CB        11.3330   13.7440   11.4880 C.3   186  TYR186      0.0534
     47  CG        10.4080   12.6520   10.9800 C.ar  186  TYR186     -0.0201
     48  CD1       10.9060   11.3920   10.6410 C.ar  186  TYR186     -0.0009
     49  CD2        9.0330   12.8740   10.8630 C.ar  186  TYR186     -0.0009
     50  CE1       10.0550   10.3750   10.2010 C.ar  186  TYR186      0.0417
     51  CE2        8.1680   11.8650   10.4200 C.ar  186  TYR186      0.0417
     52  CZ         8.6920   10.6190   10.0950 C.ar  186  TYR186      0.1957
     53  OH         7.8560    9.6060    9.6790 O.3   186  TYR186     -0.2866
     54  N          3.4160   18.9320   11.0330 N.3   204  GLY204     -0.1210
     55  CA         3.2240   18.0100    9.9260 C.3   204  GLY204      0.1956
     56  C          3.8590   18.4860    8.6280 C.2   204  GLY204      0.2612
     57  O          4.4420   19.5630    8.5760 O.2   204  GLY204     -0.2717
     58  N          3.7170   17.6830    7.5760 N.am  205  MET205     -0.1965
     59  CA         4.3010   17.9860    6.2760 C.3   205  MET205      0.1736
     60  C          3.2960   18.2130    5.1460 C.2   205  MET205      0.2617
     61  O          3.6330   18.0420    3.9720 O.2   205  MET205     -0.2715
     62  CB         5.2330   16.8500    5.8720 C.3   205  MET205      0.0427
     63  CG         6.3930   16.6370    6.8000 C.3   205  MET205      0.0599
     64  SD         7.2810   15.1310    6.3280 S.3   205  MET205     -0.1393
     65  CE         8.2370   14.8770    7.8480 C.3   205  MET205      0.0692
     66  N          2.0760   18.6150    5.4890 N.am  206  SER206     -0.1950
     67  CA         1.0490   18.8220    4.4780 C.3   206  SER206      0.1924
     68  C          0.0870   19.9200    4.9070 C.2   206  SER206      0.2314
     69  O          0.4460   20.8540    5.6230 O.2   206  SER206     -0.2863
     70  CB         0.2460   17.5350    4.3310 C.3   206  SER206      0.2116
     71  OG        -0.4000   17.2340    5.5640 O.3   206  SER206     -0.2180
     72  N          8.8280    6.4360   10.2970 N.3   241  HIS241     -0.1241
     73  CA         7.6030    6.3900    9.5100 C.3   241  HIS241      0.1621
     74  C          6.7880    5.1790    9.9630 C.2   241  HIS241      0.2264
     75  O          5.5540    5.2210    9.9940 O.2   241  HIS241     -0.2867
     76  CB         7.9410    6.2980    8.0140 C.3   241  HIS241      0.0745
     77  CG         6.7450    6.3290    7.1150 C.ar  241  HIS241      0.0817
     78  ND1        5.7540    7.2810    7.2230 N.ar  241  HIS241     -0.2268
     79  CD2        6.3880    5.5300    6.0810 C.ar  241  HIS241      0.1154
     80  CE1        4.8380    7.0670    6.2950 C.ar  241  HIS241      0.1986
     81  NE2        5.1980    6.0100    5.5880 N.ar  241  HIS241     -0.2212
     82  N          4.6340    6.1020   12.7970 N.3   244  VAL244     -0.1245
     83  CA         3.5070    6.8980   12.3150 C.3   244  VAL244      0.1561
     84  C          2.4570    6.0020   11.6690 C.2   244  VAL244      0.2260
     85  O          1.2660    6.1330   11.9510 O.2   244  VAL244     -0.2867
     86  CB         3.9680    7.9550   11.2800 C.3   244  VAL244      0.0252
     87  CG1        2.7670    8.7050   10.7190 C.3   244  VAL244      0.0019
     88  CG2        4.9470    8.9200   11.9280 C.3   244  VAL244      0.0019
@<TRIPOS>BOND
     1    10     9    2
     2    20    19    2
     3     7     8    1
     4    19    18    1
     5     9     8    1
     6     8    11    1
     7    17    18    1
     8    18    21    1
     9    23    25   ar
    10    23    22   ar
    11    11    12    1
    12    21    22    1
    13    25    27   ar
    14    13    12   ar
    15    13    15   ar
    16    22    24   ar
    17    12    14   ar
    18    15    16   ar
    19    27    28    1
    20    27    26   ar
    21    14    16   ar
    22    24    26   ar
    23    61    60    2
    24    70    67    1
    25    70    71    1
    26    67    68    1
    27    67    66    1
    28    68    69    2
    29    60    66   am
    30    60    59    1
    31     5     2    1
    32     5     6    1
    33     2     1    1
    34     2     3    1
    35    81    79   ar
    36    81    80   ar
    37    62    59    1
    38    62    63    1
    39    79    77   ar
    40    59    58    1
    41    80    78   ar
    42    64    63    1
    43    64    65    1
    44     3     4    2
    45    77    78   ar
    46    77    76    1
    47    58    56   am
    48    76    73    1
    49    33    30    1
    50    33    34    1
    51    30    29    1
    52    30    31    1
    53    57    56    2
    54    56    55    1
    55    35    34    2
    56    42    43    1
    57    34    36   am
    58    73    74    1
    59    73    72    1
    60    37    31   am
    61    37    38    1
    62    53    52    1
    63    31    32    2
    64    55    54    1
    65    74    75    2
    66    52    50   ar
    67    52    51   ar
    68    50    48   ar
    69    41    38    1
    70    40    39    2
    71    51    49   ar
    72    43    44    1
    73    43    46    1
    74    48    47   ar
    75    87    86    1
    76    38    39    1
    77    45    44    2
    78    49    47   ar
    79    47    46    1
    80    86    88    1
    81    86    83    1
    82    84    85    2
    83    84    83    1
    84    83    82    1
