@<TRIPOS>MOLECULE
tmp/1i80A00.pdb
 90 82 0 0 0
SMALL
GASTEIGER

@<TRIPOS>ATOM
      1  N         -1.6830   10.4420    5.5650 N.3    34  SER34      -0.1217
      2  CA        -0.8660    9.2320    5.5250 C.3    34  SER34       0.1889
      3  C         -1.1520    8.4580    6.8010 C.2    34  SER34       0.2288
      4  O         -1.2720    9.0480    7.8750 O.2    34  SER34      -0.2866
      5  CB         0.6210    9.5820    5.4540 C.3    34  SER34       0.2089
      6  OG         1.0210   10.3190    6.5930 O.3    34  SER34      -0.2183
      7  N         -1.4510   13.3300    9.6240 N.3   118  ALA118     -0.1245
      8  CA        -0.7810   12.6920   10.7410 C.3   118  ALA118      0.1562
      9  C          0.1600   13.7840   11.2130 C.2   118  ALA118      0.2260
     10  O          0.7560   14.4730   10.3980 O.2   118  ALA118     -0.2867
     11  CB         0.0060   11.4660   10.2730 C.3   118  ALA118      0.0290
     12  N          2.9520   15.2690   14.6010 N.3   120  GLY120     -0.1225
     13  CA         3.6480   14.9990   15.8390 C.3   120  GLY120      0.1811
     14  C          3.0200   15.9400   16.8500 C.2   120  GLY120      0.2280
     15  O          2.6410   17.0620   16.5020 O.2   120  GLY120     -0.2866
     16  N         12.2150   14.5550    9.3270 N.3   186  TYR186     -0.1227
     17  CA        11.4820   14.9360   10.5350 C.3   186  TYR186      0.1736
     18  C         12.2640   16.0640   11.2150 C.2   186  TYR186      0.2595
     19  O         13.3890   16.3770   10.8080 O.2   186  TYR186     -0.2718
     20  CB        11.3330   13.7440   11.4880 C.3   186  TYR186      0.0548
     21  CG        10.4080   12.6520   10.9800 C.ar  186  TYR186     -0.0200
     22  CD1       10.9060   11.3920   10.6410 C.ar  186  TYR186     -0.0009
     23  CD2        9.0330   12.8740   10.8630 C.ar  186  TYR186     -0.0009
     24  CE1       10.0550   10.3750   10.2010 C.ar  186  TYR186      0.0417
     25  CE2        8.1680   11.8650   10.4200 C.ar  186  TYR186      0.0417
     26  CZ         8.6920   10.6190   10.0950 C.ar  186  TYR186      0.1957
     27  OH         7.8560    9.6060    9.6790 O.3   186  TYR186     -0.2866
     28  N         11.6910   16.6670   12.2510 N.am  187  GLU187     -0.1979
     29  CA        12.3530   17.7880   12.9280 C.3   187  GLU187      0.1602
     30  C         13.3780   17.3930   13.9780 C.2   187  GLU187      0.2287
     31  O         13.2950   16.3230   14.5630 O.2   187  GLU187     -0.2864
     32  CB        11.3100   18.6910   13.6020 C.3   187  GLU187      0.0415
     33  CG        10.2010   19.2110   12.6890 C.3   187  GLU187      0.1163
     34  CD         9.3250   18.1060   12.1200 C.2   187  GLU187      0.3649
     35  OE1        8.9130   17.2110   12.8860 O.co2 187  GLU187     -0.2457
     36  OE2        9.0390   18.1320   10.9050 O.co2 187  GLU187     -0.2457
     37  N          2.7600   19.3190   14.4680 N.3   203  VAL203     -0.1231
     38  CA         3.6890   19.5470   13.3690 C.3   203  VAL203      0.1692
     39  C          3.4980   18.4860   12.2830 C.2   203  VAL203      0.2593
     40  O          3.4100   17.2940   12.5700 O.2   203  VAL203     -0.2718
     41  CB         5.1710   19.5600   13.8530 C.3   203  VAL203      0.0266
     42  CG1        5.5230   18.2450   14.5340 C.3   203  VAL203      0.0020
     43  CG2        6.1040   19.8080   12.6600 C.3   203  VAL203      0.0020
     44  N          3.4160   18.9320   11.0330 N.am  204  GLY204     -0.1942
     45  CA         3.2240   18.0100    9.9260 C.3   204  GLY204      0.2014
     46  C          3.8590   18.4860    8.6280 C.2   204  GLY204      0.2638
     47  O          4.4420   19.5630    8.5760 O.2   204  GLY204     -0.2714
     48  N          3.7170   17.6830    7.5760 N.am  205  MET205     -0.1976
     49  CA         4.3010   17.9860    6.2760 C.3   205  MET205      0.1605
     50  C          3.2960   18.2130    5.1460 C.2   205  MET205      0.2287
     51  O          3.6330   18.0420    3.9720 O.2   205  MET205     -0.2864
     52  CB         5.2330   16.8500    5.8720 C.3   205  MET205      0.0413
     53  CG         6.3930   16.6370    6.8000 C.3   205  MET205      0.0598
     54  SD         7.2810   15.1310    6.3280 S.3   205  MET205     -0.1393
     55  CE         8.2370   14.8770    7.8480 C.3   205  MET205      0.0692
     56  N          0.2480   10.9770   15.8080 N.3   228  THR228     -0.1203
     57  CA         0.8030    9.6430   15.6160 C.3   228  THR228      0.1994
     58  C          2.0600    9.4130   16.4340 C.2   228  THR228      0.2617
     59  O          2.5400    8.2820   16.5590 O.2   228  THR228     -0.2717
     60  CB         1.1120    9.4220   14.1310 C.3   228  THR228      0.1784
     61  OG1        1.9880   10.4610   13.6770 O.3   228  THR228     -0.2211
     62  CG2       -0.1790    9.4710   13.3130 C.3   228  THR228      0.0376
     63  N          2.5820   10.4940   17.0010 N.am  229  ASN229     -0.1974
     64  CA         3.7860   10.4370   17.8120 C.3   229  ASN229      0.1688
     65  C          3.9540   11.7660   18.5230 C.2   229  ASN229      0.2292
     66  O          3.3110   12.7510   18.1670 O.2   229  ASN229     -0.2864
     67  CB         5.0130   10.2120   16.9230 C.3   229  ASN229      0.1181
     68  CG         5.2100   11.3330   15.9070 C.2   229  ASN229      0.2629
     69  OD1        4.4900   11.4140   14.9130 O.2   229  ASN229     -0.2716
     70  ND2        6.1830   12.2070   16.1580 N.am  229  ASN229     -0.0877
     71  N          6.2920   14.9160   19.2140 N.3   231  ALA231     -0.1245
     72  CA         7.3360   15.5680   18.4240 C.3   231  ALA231      0.1562
     73  C          8.7570   15.2250   18.8850 C.2   231  ALA231      0.2260
     74  O          8.9790   14.8760   20.0450 O.2   231  ALA231     -0.2867
     75  CB         7.1270   17.0840   18.4450 C.3   231  ALA231      0.0290
     76  N         12.1120    9.1510   15.9670 N.3   239  LEU239     -0.1245
     77  CA        10.8590    8.9210   15.2630 C.3   239  LEU239      0.1561
     78  C         11.1060    7.9940   14.0670 C.2   239  LEU239      0.2260
     79  O         12.2480    7.7700   13.6670 O.2   239  LEU239     -0.2867
     80  CB        10.2780   10.2530   14.7720 C.3   239  LEU239      0.0270
     81  CG        10.1480   11.4110   15.7710 C.3   239  LEU239      0.0019
     82  CD1        9.5870   12.6370   15.0610 C.3   239  LEU239      0.0001
     83  CD2        9.2410   11.0100   16.9290 C.3   239  LEU239      0.0001
     84  N          4.6340    6.1020   12.7970 N.3   244  VAL244     -0.1245
     85  CA         3.5070    6.8980   12.3150 C.3   244  VAL244      0.1561
     86  C          2.4570    6.0020   11.6690 C.2   244  VAL244      0.2260
     87  O          1.2660    6.1330   11.9510 O.2   244  VAL244     -0.2867
     88  CB         3.9680    7.9550   11.2800 C.3   244  VAL244      0.0252
     89  CG1        2.7670    8.7050   10.7190 C.3   244  VAL244      0.0019
     90  CG2        4.9470    8.9200   11.9280 C.3   244  VAL244      0.0019
@<TRIPOS>BOND
     1    51    50    2
     2    50    49    1
     3     5     2    1
     4     5     6    1
     5     2     1    1
     6     2     3    1
     7    52    49    1
     8    52    53    1
     9    49    48    1
    10    54    53    1
    11    54    55    1
    12     3     4    2
    13    48    46   am
    14    47    46    2
    15    46    45    1
    16    16    17    1
    17     7     8    1
    18    27    26    1
    19    45    44    1
    20    26    24   ar
    21    26    25   ar
    22    24    22   ar
    23    11     8    1
    24    10     9    2
    25    25    23   ar
    26    17    18    1
    27    17    20    1
    28    22    21   ar
    29    89    88    1
    30     8     9    1
    31    19    18    2
    32    23    21   ar
    33    36    34   ar
    34    21    20    1
    35    44    39   am
    36    18    28   am
    37    88    90    1
    38    88    85    1
    39    86    87    2
    40    86    85    1
    41    34    33    1
    42    34    35   ar
    43    28    29    1
    44    39    40    2
    45    39    38    1
    46    85    84    1
    47    43    41    1
    48    33    32    1
    49    29    32    1
    50    29    30    1
    51    62    60    1
    52    38    41    1
    53    38    37    1
    54    79    78    2
    55    61    60    1
    56    41    42    1
    57    30    31    2
    58    78    77    1
    59    60    57    1
    60    12    13    1
    61    80    77    1
    62    80    81    1
    63    69    68    2
    64    82    81    1
    65    77    76    1
    66    57    56    1
    67    57    58    1
    68    81    83    1
    69    13    14    1
    70    68    70   am
    71    68    67    1
    72    58    59    2
    73    58    63   am
    74    15    14    2
    75    67    64    1
    76    63    64    1
    77    64    65    1
    78    66    65    2
    79    72    75    1
    80    72    73    1
    81    72    71    1
    82    73    74    2
