@<TRIPOS>MOLECULE
tmp/1i82A00.pdb
 118 114 0 0 0
SMALL
GASTEIGER

@<TRIPOS>ATOM
      1  N         31.2680   41.8200   25.2400 N.3    72  TRP72      -0.1241
      2  CA        31.9360   41.9330   23.9480 C.3    72  TRP72       0.1605
      3  C         32.0540   40.5770   23.2790 C.2    72  TRP72       0.2264
      4  O         32.5010   40.4750   22.1320 O.2    72  TRP72      -0.2867
      5  CB        33.3260   42.5630   24.1290 C.3    72  TRP72       0.0550
      6  CG        34.1380   41.9750   25.2540 C.ar   72  TRP72       0.0003
      7  CD1       34.9980   40.9160   25.1880 C.ar   72  TRP72       0.0946
      8  CD2       34.1330   42.3910   26.6280 C.ar   72  TRP72       0.0152
      9  NE1       35.5270   40.6510   26.4330 N.ar   72  TRP72      -0.2442
     10  CE2       35.0150   41.5590   27.3260 C.ar   72  TRP72       0.0810
     11  CE3       33.4650   43.4210   27.3130 C.ar   72  TRP72       0.0012
     12  CZ2       35.2380   41.6900   28.7090 C.ar   72  TRP72       0.0191
     13  CZ3       33.6950   43.5550   28.6850 C.ar   72  TRP72       0.0001
     14  CH2       34.5780   42.6990   29.3610 C.ar   72  TRP72       0.0015
     15  N         29.3040   47.3950   18.2420 N.3    78  GLU78      -0.1245
     16  CA        29.9350   48.4240   19.0540 C.3    78  GLU78       0.1567
     17  C         30.1320   49.6660   18.1960 C.2    78  GLU78       0.2260
     18  O         30.4790   49.5660   17.0160 O.2    78  GLU78      -0.2867
     19  CB        31.2850   47.9350   19.5880 C.3    78  GLU78       0.0388
     20  CG        31.1640   46.8620   20.6620 C.3    78  GLU78       0.1160
     21  CD        32.5170   46.3990   21.1800 C.2    78  GLU78       0.3649
     22  OE1       33.5410   46.9890   20.7700 O.co2  78  GLU78      -0.2457
     23  OE2       32.5530   45.4470   21.9930 O.co2  78  GLU78      -0.2457
     24  N         32.0100   53.5200   18.0690 N.3    80  PHE80      -0.1241
     25  CA        33.0530   54.3660   18.6430 C.3    80  PHE80       0.1605
     26  C         33.0000   55.7880   18.1110 C.2    80  PHE80       0.2264
     27  O         32.8810   56.0130   16.9040 O.2    80  PHE80      -0.2867
     28  CB        34.4450   53.7910   18.3440 C.3    80  PHE80       0.0534
     29  CG        34.6330   52.3620   18.7790 C.ar   80  PHE80      -0.0203
     30  CD1       34.3010   51.3080   17.9280 C.ar   80  PHE80      -0.0042
     31  CD2       35.1450   52.0660   20.0380 C.ar   80  PHE80      -0.0042
     32  CE1       34.4820   49.9720   18.3270 C.ar   80  PHE80      -0.0003
     33  CE2       35.3300   50.7300   20.4510 C.ar   80  PHE80      -0.0003
     34  CZ        34.9970   49.6910   19.5930 C.ar   80  PHE80      -0.0000
     35  N         32.8360   54.4770   23.7620 N.3    97  GLN97      -0.1245
     36  CA        32.5430   53.1830   23.1770 C.3    97  GLN97       0.1566
     37  C         31.1770   52.7570   23.6790 C.2    97  GLN97       0.2260
     38  O         30.9500   52.6860   24.8900 O.2    97  GLN97      -0.2867
     39  CB        33.5720   52.1340   23.6010 C.3    97  GLN97       0.0367
     40  CG        33.1460   50.7200   23.2250 C.3    97  GLN97       0.0905
     41  CD        34.0770   49.6530   23.7760 C.2    97  GLN97       0.2608
     42  OE1       34.5330   49.7430   24.9170 O.2    97  GLN97      -0.2717
     43  NE2       34.3440   48.6260   22.9720 N.am   97  GLN97      -0.0878
     44  N         27.9310   49.8350   23.2020 N.3    99  ARG99      -0.1245
     45  CA        27.6600   48.4770   22.7530 C.3    99  ARG99       0.1563
     46  C         26.2050   48.0780   22.9850 C.2    99  ARG99       0.2260
     47  O         25.5870   48.4610   23.9820 O.2    99  ARG99      -0.2867
     48  CB        28.5720   47.4820   23.4820 C.3    99  ARG99       0.0307
     49  CG        28.4140   46.0390   23.0130 C.3    99  ARG99       0.0489
     50  CD        29.2050   45.0680   23.8900 C.3    99  ARG99       0.2205
     51  NE        30.6470   45.3480   23.8870 N.pl3  99  ARG99      -0.0865
     52  CZ        31.3080   45.8830   24.9080 C.cat  99  ARG99       0.5346
     53  NH1       30.6630   46.1970   26.0270 N.pl3  99  ARG99       0.1354
     54  NH2       32.6120   46.1030   24.8060 N.pl3  99  ARG99       0.1354
     55  N         28.4870   49.4860   28.2210 N.3   108  PHE108     -0.1227
     56  CA        29.3300   50.6120   27.8800 C.3   108  PHE108      0.1736
     57  C         30.8070   50.4770   28.1840 C.2   108  PHE108      0.2596
     58  O         31.2070   49.8680   29.1750 O.2   108  PHE108     -0.2718
     59  CB        28.7850   51.8750   28.5610 C.3   108  PHE108      0.0547
     60  CG        27.3130   52.1020   28.3160 C.ar  108  PHE108     -0.0202
     61  CD1       26.3540   51.4390   29.0800 C.ar  108  PHE108     -0.0042
     62  CD2       26.8890   52.9110   27.2700 C.ar  108  PHE108     -0.0042
     63  CE1       24.9910   51.5760   28.7940 C.ar  108  PHE108     -0.0003
     64  CE2       25.5270   53.0540   26.9770 C.ar  108  PHE108     -0.0003
     65  CZ        24.5840   52.3830   27.7390 C.ar  108  PHE108     -0.0000
     66  N         31.6180   51.0570   27.3050 N.am  109  GLY109     -0.1942
     67  CA        33.0480   51.0500   27.5140 C.3   109  GLY109      0.2014
     68  C         33.3640   52.4490   28.0070 C.2   109  GLY109      0.2639
     69  O         32.4680   53.1750   28.4450 O.2   109  GLY109     -0.2714
     70  N         34.6270   52.8400   27.9430 N.am  110  THR110     -0.1950
     71  CA        35.0240   54.1800   28.3720 C.3   110  THR110      0.1897
     72  C         34.2080   55.2550   27.6310 C.2   110  THR110      0.2313
     73  O         34.0530   55.1830   26.4160 O.2   110  THR110     -0.2863
     74  CB        36.5240   54.4410   28.0680 C.3   110  THR110      0.1794
     75  OG1       37.3290   53.3970   28.6290 O.3   110  THR110     -0.2208
     76  CG2       36.9580   55.7800   28.6590 C.3   110  THR110      0.0378
     77  N         31.9790   48.2390   15.0280 N.3   152  GLN152     -0.1245
     78  CA        32.4910   46.8800   15.0470 C.3   152  GLN152      0.1566
     79  C         31.4030   45.8690   15.3300 C.2   152  GLN152      0.2260
     80  O         30.4680   46.1370   16.0790 O.2   152  GLN152     -0.2867
     81  CB        33.5730   46.7760   16.1190 C.3   152  GLN152      0.0367
     82  CG        34.0430   45.3590   16.4270 C.3   152  GLN152      0.0905
     83  CD        35.1310   45.3660   17.4780 C.2   152  GLN152      0.2608
     84  OE1       36.2100   45.9170   17.2570 O.2   152  GLN152     -0.2717
     85  NE2       34.8540   44.7630   18.6330 N.am  152  GLN152     -0.0878
     86  N         33.5370   34.0440   21.2460 N.3   162  ARG162     -0.1245
     87  CA        33.6710   35.0070   20.1640 C.3   162  ARG162      0.1563
     88  C         34.6420   34.4590   19.1270 C.2   162  ARG162      0.2260
     89  O         35.7870   34.1280   19.4480 O.2   162  ARG162     -0.2867
     90  CB        34.1700   36.3630   20.6650 C.3   162  ARG162      0.0307
     91  CG        34.3230   37.3650   19.5230 C.3   162  ARG162      0.0489
     92  CD        34.4050   38.7940   20.0110 C.3   162  ARG162      0.2205
     93  NE        35.6080   39.0430   20.7820 N.pl3 162  ARG162     -0.0865
     94  CZ        36.0150   40.2550   21.1380 C.cat 162  ARG162      0.5346
     95  NH1       35.3120   41.3190   20.7820 N.pl3 162  ARG162      0.1354
     96  NH2       37.1210   40.4010   21.8640 N.pl3 162  ARG162      0.1354
     97  N         41.6400   45.3100   16.8110 N.3   173  ASN173     -0.1240
     98  CA        40.9020   45.1470   18.0620 C.3   173  ASN173      0.1653
     99  C         41.3830   46.0440   19.2120 C.2   173  ASN173      0.2266
    100  O         41.4300   45.6110   20.3670 O.2   173  ASN173     -0.2867
    101  CB        40.9490   43.6860   18.5120 C.3   173  ASN173      0.1155
    102  CG        39.9130   43.3760   19.5790 C.2   173  ASN173      0.2627
    103  OD1       38.7270   43.6680   19.4090 O.2   173  ASN173     -0.2716
    104  ND2       40.3550   42.7800   20.6830 N.am  173  ASN173     -0.0877
    105  N         38.6490   49.9570   21.5030 N.3   176  TRP176     -0.1241
    106  CA        38.1310   50.1590   22.8570 C.3   176  TRP176      0.1605
    107  C         39.0340   51.0300   23.7200 C.2   176  TRP176      0.2264
    108  O         38.6270   51.4290   24.8160 O.2   176  TRP176     -0.2867
    109  CB        37.9150   48.8130   23.5640 C.3   176  TRP176      0.0550
    110  CG        39.1880   48.0470   23.8610 C.ar  176  TRP176      0.0003
    111  CD1       39.9190   47.2930   22.9860 C.ar  176  TRP176      0.0946
    112  CD2       39.8680   47.9630   25.1240 C.ar  176  TRP176      0.0152
    113  NE1       41.0100   46.7470   23.6240 N.ar  176  TRP176     -0.2442
    114  CE2       41.0060   47.1440   24.9360 C.ar  176  TRP176      0.0810
    115  CE3       39.6270   48.5100   26.3950 C.ar  176  TRP176      0.0012
    116  CZ2       41.9000   46.8480   25.9740 C.ar  176  TRP176      0.0191
    117  CZ3       40.5150   48.2120   27.4280 C.ar  176  TRP176      0.0001
    118  CH2       41.6390   47.3950   27.2080 C.ar  176  TRP176      0.0015
@<TRIPOS>BOND
     1    77    78    1
     2    78    79    1
     3    78    81    1
     4    79    80    2
     5    81    82    1
     6    82    83    1
     7    97    98    1
     8    27    26    2
     9    18    17    2
    10    84    83    2
    11    83    85   am
    12    30    32   ar
    13    30    29   ar
    14    98   101    1
    15    98    99    1
    16    24    25    1
    17    26    25    1
    18    17    16    1
    19    15    16    1
    20    32    34   ar
    21    28    25    1
    22    28    29    1
    23   101   102    1
    24    29    31   ar
    25    16    19    1
    26    88    89    2
    27    88    87    1
    28    99   100    2
    29   103   102    2
    30    91    92    1
    31    91    90    1
    32   102   104   am
    33    19    20    1
    34    34    33   ar
    35    92    93    1
    36    31    33   ar
    37    87    90    1
    38    87    86    1
    39    20    21    1
    40    22    21   ar
    41    95    94    1
    42    93    94    2
    43    94    96    1
    44    21    23   ar
    45   105   106    1
    46     4     3    2
    47    45    46    1
    48    45    44    1
    49    45    48    1
    50   106   109    1
    51   106   107    1
    52    43    41   am
    53    46    47    2
    54   111   113   ar
    55   111   110   ar
    56    49    48    1
    57    49    50    1
    58    36    39    1
    59    36    37    1
    60    36    35    1
    61    40    39    1
    62    40    41    1
    63     3     2    1
    64   109   110    1
    65   113   114   ar
    66    37    38    2
    67   107   108    2
    68    41    42    2
    69   110   112   ar
    70    51    50    1
    71    51    52    2
    72     2     5    1
    73     2     1    1
    74     5     6    1
    75    54    52    1
    76    52    53    1
    77   114   112   ar
    78   114   116   ar
    79   112   115   ar
    80     7     6   ar
    81     7     9   ar
    82     6     8   ar
    83   116   118   ar
    84   115   117   ar
    85    73    72    2
    86     9    10   ar
    87     8    11   ar
    88     8    10   ar
    89    64    62   ar
    90    64    65   ar
    91   118   117   ar
    92    62    60   ar
    93    66    67    1
    94    66    57   am
    95    11    13   ar
    96    10    12   ar
    97    67    68    1
    98    72    71    1
    99    65    63   ar
   100    56    57    1
   101    56    55    1
   102    56    59    1
   103    70    68   am
   104    70    71    1
   105    68    69    2
   106    74    71    1
   107    74    75    1
   108    74    76    1
   109    57    58    2
   110    60    59    1
   111    60    61   ar
   112    13    14   ar
   113    12    14   ar
   114    63    61   ar
