@<TRIPOS>MOLECULE
tmp/1i83A01.pdb
 107 106 0 0 0
SMALL
GASTEIGER

@<TRIPOS>ATOM
      1  N          8.8000    5.2150   36.8810 N.3   120  CYS120     -0.1235
      2  CA         7.7600    5.4790   35.8950 C.3   120  CYS120      0.1677
      3  C          6.4440    4.7620   36.1970 C.2   120  CYS120      0.2270
      4  O          6.3710    3.5320   36.1830 O.2   120  CYS120     -0.2867
      5  CB         8.2400    5.0720   34.4970 C.3   120  CYS120      0.0956
      6  SG         7.0400    5.5680   33.2230 S.3   120  CYS120     -0.0801
      7  N         14.8950   18.4940   28.5490 N.3   183  GLN183     -0.1245
      8  CA        13.7070   18.0520   27.8170 C.3   183  GLN183      0.1566
      9  C         13.7390   18.7660   26.4630 C.2   183  GLN183      0.2260
     10  O         14.3840   19.8090   26.3350 O.2   183  GLN183     -0.2867
     11  CB        12.4210   18.4440   28.5510 C.3   183  GLN183      0.0367
     12  CG        12.0730   17.5960   29.7620 C.3   183  GLN183      0.0905
     13  CD        10.7130   17.9640   30.3580 C.2   183  GLN183      0.2608
     14  OE1        9.7690   18.2860   29.6280 O.2   183  GLN183     -0.2717
     15  NE2       10.6060   17.9020   31.6900 N.am  183  GLN183     -0.0878
     16  N          5.9170   15.7620   26.7850 N.3   270  PRO270     -0.2116
     17  CA         6.9720   15.6540   27.7870 C.3   270  PRO270      0.1372
     18  C          8.0530   14.7410   27.2090 C.2   270  PRO270      0.2244
     19  O          7.8670   13.5270   27.1150 O.2   270  PRO270     -0.2868
     20  CB         6.2430   15.0470   28.9830 C.3   270  PRO270      0.0268
     21  CG         5.2540   14.1400   28.3410 C.3   270  PRO270      0.0207
     22  CD         4.7550   14.9230   27.1450 C.3   270  PRO270      0.0892
     23  N         11.8710   13.7060   27.7900 N.3   272  VAL272     -0.1245
     24  CA        13.1140   13.7060   28.5350 C.3   272  VAL272      0.1561
     25  C         14.2370   13.5300   27.5190 C.2   272  VAL272      0.2260
     26  O         14.1770   12.6320   26.6740 O.2   272  VAL272     -0.2867
     27  CB        13.1220   12.5540   29.5560 C.3   272  VAL272      0.0252
     28  CG1       14.4480   12.5040   30.2910 C.3   272  VAL272      0.0019
     29  CG2       11.9720   12.7450   30.5360 C.3   272  VAL272      0.0019
     30  N         18.8570   11.8760   29.5100 N.3   275  MET275     -0.1245
     31  CA        19.1500   10.5790   30.1030 C.3   275  MET275      0.1570
     32  C         19.9250    9.6580   29.1710 C.2   275  MET275      0.2261
     33  O         19.8120    9.7450   27.9540 O.2   275  MET275     -0.2867
     34  CB        17.8620    9.8950   30.5570 C.3   275  MET275      0.0387
     35  CG        17.1770   10.6110   31.7090 C.3   275  MET275      0.0595
     36  SD        15.8390    9.6410   32.4270 S.3   275  MET275     -0.1393
     37  CE        16.7520    8.7020   33.6200 C.3   275  MET275      0.0692
     38  N         13.2800   10.5040   24.7710 N.3   289  PHE289     -0.1227
     39  CA        12.0650    9.7030   24.7650 C.3   289  PHE289      0.1736
     40  C         10.8810   10.5330   25.2530 C.2   289  PHE289      0.2596
     41  O         11.0530   11.4860   26.0150 O.2   289  PHE289     -0.2718
     42  CB        12.2560    8.4620   25.6440 C.3   289  PHE289      0.0547
     43  CG        12.5100    8.7670   27.0990 C.ar  289  PHE289     -0.0202
     44  CD1       11.4580    9.1140   27.9480 C.ar  289  PHE289     -0.0042
     45  CD2       13.7990    8.6810   27.6250 C.ar  289  PHE289     -0.0042
     46  CE1       11.6820    9.3660   29.3000 C.ar  289  PHE289     -0.0003
     47  CE2       14.0390    8.9310   28.9780 C.ar  289  PHE289     -0.0003
     48  CZ        12.9830    9.2710   29.8200 C.ar  289  PHE289     -0.0000
     49  N          9.6840   10.1750   24.8050 N.am  290  SER290     -0.1938
     50  CA         8.4840   10.8990   25.2070 C.3   290  SER290      0.2055
     51  C          7.2430   10.0070   25.2480 C.2   290  SER290      0.2644
     52  O          7.1690    8.9800   24.5590 O.2   290  SER290     -0.2714
     53  CB         8.2390   12.0650   24.2490 C.3   290  SER290      0.2130
     54  OG         8.0800   11.5950   22.9230 O.3   290  SER290     -0.2179
     55  N          6.2820   10.4100   26.0780 N.am  291  GLY291     -0.1939
     56  CA         5.0220    9.6990   26.2180 C.3   291  GLY291      0.2014
     57  C          3.9800   10.7970   26.3350 C.2   291  GLY291      0.2639
     58  O          3.8350   11.6080   25.4260 O.2   291  GLY291     -0.2714
     59  N          3.2390   10.8170   27.4330 N.am  292  TRP292     -0.1959
     60  CA         2.2740   11.8820   27.6680 C.3   292  TRP292      0.1771
     61  C          2.3010   12.1820   29.1550 C.2   292  TRP292      0.2619
     62  O          2.8590   11.4110   29.9330 O.2   292  TRP292     -0.2715
     63  CB         0.8640   11.5140   27.1690 C.3   292  TRP292      0.0590
     64  CG         0.3020   10.2310   27.6530 C.ar  292  TRP292      0.0006
     65  CD1       -0.2360    9.9770   28.8800 C.ar  292  TRP292      0.0946
     66  CD2        0.2140    9.0080   26.9110 C.ar  292  TRP292      0.0152
     67  NE1       -0.6550    8.6710   28.9500 N.ar  292  TRP292     -0.2442
     68  CE2       -0.3900    8.0530   27.7550 C.ar  292  TRP292      0.0810
     69  CE3        0.5890    8.6300   25.6130 C.ar  292  TRP292      0.0012
     70  CZ2       -0.6310    6.7350   27.3470 C.ar  292  TRP292      0.0191
     71  CZ3        0.3470    7.3170   25.2030 C.ar  292  TRP292      0.0001
     72  CH2       -0.2580    6.3860   26.0710 C.ar  292  TRP292      0.0015
     73  N          1.7360   13.3170   29.5480 N.am  293  TYR293     -0.1974
     74  CA         1.7370   13.7220   30.9470 C.3   293  TYR293      0.1639
     75  C          0.7020   13.0740   31.8490 C.2   293  TYR293      0.2290
     76  O         -0.3600   12.6480   31.4050 O.2   293  TYR293     -0.2864
     77  CB         1.5160   15.2390   31.0550 C.3   293  TYR293      0.0560
     78  CG         2.7560   16.0890   31.0010 C.ar  293  TYR293     -0.0198
     79  CD1        3.7060   16.0370   32.0190 C.ar  293  TYR293     -0.0009
     80  CD2        2.9640   16.9750   29.9440 C.ar  293  TYR293     -0.0009
     81  CE1        4.8360   16.8520   31.9890 C.ar  293  TYR293      0.0417
     82  CE2        4.0830   17.7940   29.8920 C.ar  293  TYR293      0.0417
     83  CZ         5.0090   17.7260   30.9180 C.ar  293  TYR293      0.1957
     84  OH         6.1140   18.5400   30.8850 O.3   293  TYR293     -0.2866
     85  N          1.9610   16.1690   37.2420 N.3   297  GLU297     -0.1245
     86  CA         3.2990   16.6470   36.8880 C.3   297  GLU297      0.1567
     87  C          3.2180   18.1340   36.5550 C.2   297  GLU297      0.2260
     88  O          4.0970   18.9210   36.9170 O.2   297  GLU297     -0.2867
     89  CB         3.8390   15.8870   35.6740 C.3   297  GLU297      0.0388
     90  CG         4.2800   14.4620   35.9510 C.3   297  GLU297      0.1160
     91  CD         4.8230   13.7900   34.7000 C.2   297  GLU297      0.3649
     92  OE1        4.0190   13.2680   33.8990 O.co2 297  GLU297     -0.2457
     93  OE2        6.0610   13.8030   34.5120 O.co2 297  GLU297     -0.2457
     94  N          8.2310    7.8510   44.1280 N.3   382  TRP382     -0.1241
     95  CA         7.9750    8.4190   42.8140 C.3   382  TRP382      0.1605
     96  C          6.6840    7.9230   42.1690 C.2   382  TRP382      0.2264
     97  O          6.1280    8.5840   41.2920 O.2   382  TRP382     -0.2867
     98  CB         9.1460    8.1280   41.8790 C.3   382  TRP382      0.0550
     99  CG        10.3350    8.9870   42.1370 C.ar  382  TRP382      0.0003
    100  CD1       11.1060    9.0190   43.2670 C.ar  382  TRP382      0.0946
    101  CD2       10.9070    9.9360   41.2320 C.ar  382  TRP382      0.0152
    102  NE1       12.1280    9.9300   43.1160 N.ar  382  TRP382     -0.2442
    103  CE2       12.0270   10.5050   41.8750 C.ar  382  TRP382      0.0810
    104  CE3       10.5780   10.3590   39.9320 C.ar  382  TRP382      0.0012
    105  CZ2       12.8240   11.4740   41.2660 C.ar  382  TRP382      0.0191
    106  CZ3       11.3740   11.3280   39.3250 C.ar  382  TRP382      0.0001
    107  CH2       12.4850   11.8730   39.9950 C.ar  382  TRP382      0.0015
@<TRIPOS>BOND
     1    54    53    1
     2    53    50    1
     3    52    51    2
     4    39    38    1
     5    39    40    1
     6    39    42    1
     7    49    50    1
     8    49    40   am
     9    71    69   ar
    10    71    72   ar
    11    50    51    1
    12    51    55   am
    13    40    41    2
    14    58    57    2
    15    69    66   ar
    16    42    43    1
    17    72    70   ar
    18    55    56    1
    19    56    57    1
    20    57    59   am
    21    10     9    2
    22     9     8    1
    23    26    25    2
    24    16    22    1
    25    16    17    1
    26    66    64   ar
    27    66    68   ar
    28    43    45   ar
    29    43    44   ar
    30    19    18    2
    31    22    21    1
    32    63    64    1
    33    63    60    1
    34    18    17    1
    35    70    68   ar
    36    59    60    1
    37    25    24    1
    38    45    47   ar
    39    64    65   ar
    40    60    61    1
    41    68    67   ar
    42    17    20    1
    43    23    24    1
    44     8     7    1
    45     8    11    1
    46    44    46   ar
    47    33    32    2
    48    21    20    1
    49    24    27    1
    50    11    12    1
    51    65    67   ar
    52    47    48   ar
    53    61    73   am
    54    61    62    2
    55    32    31    1
    56    46    48   ar
    57    30    31    1
    58    73    74    1
    59    27    28    1
    60    27    29    1
    61    14    13    2
    62    12    13    1
    63    82    80   ar
    64    82    83   ar
    65    80    78   ar
    66    31    34    1
    67    13    15   am
    68    34    35    1
    69    84    83    1
    70    83    81   ar
    71    74    77    1
    72    74    75    1
    73    78    77    1
    74    78    79   ar
    75    76    75    2
    76    35    36    1
    77    81    79   ar
    78    36    37    1
    79     6     5    1
    80    92    91   ar
    81     5     2    1
    82    93    91   ar
    83    91    90    1
    84    89    90    1
    85    89    86    1
    86     2     3    1
    87     2     1    1
    88     4     3    2
    89    87    86    1
    90    87    88    2
    91    86    85    1
    92   106   104   ar
    93   106   107   ar
    94   104   101   ar
    95   107   105   ar
    96   101   103   ar
    97   101    99   ar
    98   105   103   ar
    99    97    96    2
   100   103   102   ar
   101    98    99    1
   102    98    95    1
   103    99   100   ar
   104    96    95    1
   105    95    94    1
   106   102   100   ar
