@<TRIPOS>MOLECULE
tmp/1i8aA00.pdb
 111 107 0 0 0
SMALL
GASTEIGER

@<TRIPOS>ATOM
      1  N         31.2240   41.9590   25.1770 N.3    72  TRP72      -0.1241
      2  CA        31.8870   42.0500   23.8810 C.3    72  TRP72       0.1605
      3  C         32.0320   40.6750   23.2320 C.2    72  TRP72       0.2264
      4  O         32.4430   40.5700   22.0770 O.2    72  TRP72      -0.2867
      5  CB        33.2530   42.7330   24.0230 C.3    72  TRP72       0.0550
      6  CG        34.1460   42.1190   25.0490 C.ar   72  TRP72       0.0003
      7  CD1       35.0370   41.1040   24.8680 C.ar   72  TRP72       0.0946
      8  CD2       34.2280   42.4730   26.4360 C.ar   72  TRP72       0.0152
      9  NE1       35.6680   40.8070   26.0510 N.ar   72  TRP72      -0.2442
     10  CE2       35.1880   41.6360   27.0330 C.ar   72  TRP72       0.0810
     11  CE3       33.5790   43.4250   27.2380 C.ar   72  TRP72       0.0012
     12  CZ2       35.5150   41.7150   28.3880 C.ar   72  TRP72       0.0191
     13  CZ3       33.9110   43.5020   28.5880 C.ar   72  TRP72       0.0001
     14  CH2       34.8660   42.6530   29.1460 C.ar   72  TRP72       0.0015
     15  N         29.3350   47.5700   18.2570 N.3    78  GLU78      -0.1245
     16  CA        29.9400   48.6120   19.0780 C.3    78  GLU78       0.1567
     17  C         30.1470   49.8430   18.2120 C.2    78  GLU78       0.2260
     18  O         30.5330   49.7290   17.0470 O.2    78  GLU78      -0.2867
     19  CB        31.2830   48.1470   19.6470 C.3    78  GLU78       0.0388
     20  CG        31.1760   46.9670   20.6000 C.3    78  GLU78       0.1160
     21  CD        32.5250   46.5260   21.1350 C.2    78  GLU78       0.3649
     22  OE1       33.5450   47.1490   20.7590 O.co2  78  GLU78      -0.2457
     23  OE2       32.5640   45.5590   21.9260 O.co2  78  GLU78      -0.2457
     24  N         32.0240   53.6670   18.0630 N.3    80  PHE80      -0.1241
     25  CA        33.0670   54.5050   18.6510 C.3    80  PHE80       0.1605
     26  C         33.0180   55.9360   18.1490 C.2    80  PHE80       0.2264
     27  O         32.8660   56.1760   16.9510 O.2    80  PHE80      -0.2867
     28  CB        34.4470   53.9180   18.3450 C.3    80  PHE80       0.0534
     29  CG        34.6170   52.4980   18.8010 C.ar   80  PHE80      -0.0203
     30  CD1       34.2670   51.4330   17.9760 C.ar   80  PHE80      -0.0042
     31  CD2       35.1220   52.2200   20.0690 C.ar   80  PHE80      -0.0042
     32  CE1       34.4160   50.1120   18.4050 C.ar   80  PHE80      -0.0003
     33  CE2       35.2740   50.9070   20.5090 C.ar   80  PHE80      -0.0003
     34  CZ        34.9210   49.8510   19.6790 C.ar   80  PHE80      -0.0000
     35  N         32.8400   54.6300   23.7870 N.3    97  GLN97      -0.1245
     36  CA        32.5610   53.3280   23.2090 C.3    97  GLN97       0.1566
     37  C         31.1720   52.9190   23.6840 C.2    97  GLN97       0.2260
     38  O         30.9090   52.9100   24.8890 O.2    97  GLN97      -0.2867
     39  CB        33.5790   52.2820   23.6700 C.3    97  GLN97       0.0367
     40  CG        33.1710   50.8520   23.3040 C.3    97  GLN97       0.0905
     41  CD        34.1660   49.8000   23.7720 C.2    97  GLN97       0.2608
     42  OE1       34.6320   49.8320   24.9090 O.2    97  GLN97      -0.2717
     43  NE2       34.4800   48.8500   22.8970 N.am   97  GLN97      -0.0878
     44  N         27.9140   49.9710   23.1540 N.3    99  ARG99      -0.1245
     45  CA        27.6610   48.6090   22.6980 C.3    99  ARG99       0.1563
     46  C         26.2090   48.2090   22.9210 C.2    99  ARG99       0.2260
     47  O         25.5970   48.5780   23.9230 O.2    99  ARG99      -0.2867
     48  CB        28.5650   47.6110   23.4440 C.3    99  ARG99       0.0307
     49  CG        28.4330   46.1680   22.9410 C.3    99  ARG99       0.0489
     50  CD        29.2470   45.1720   23.7710 C.3    99  ARG99       0.2205
     51  NE        30.6690   45.5080   23.7940 N.pl3  99  ARG99      -0.0865
     52  CZ        31.2980   46.0240   24.8420 C.cat  99  ARG99       0.5346
     53  NH1       30.6310   46.2650   25.9660 N.pl3  99  ARG99       0.1354
     54  NH2       32.5900   46.3090   24.7650 N.pl3  99  ARG99       0.1354
     55  N         28.5390   49.6330   28.2110 N.3   108  PHE108     -0.1227
     56  CA        29.3790   50.7660   27.8800 C.3   108  PHE108      0.1736
     57  C         30.8500   50.6410   28.2050 C.2   108  PHE108      0.2596
     58  O         31.2300   50.1230   29.2540 O.2   108  PHE108     -0.2718
     59  CB        28.8210   52.0180   28.5620 C.3   108  PHE108      0.0547
     60  CG        27.3640   52.2500   28.2870 C.ar  108  PHE108     -0.0202
     61  CD1       26.3850   51.6270   29.0550 C.ar  108  PHE108     -0.0042
     62  CD2       26.9670   53.0360   27.2110 C.ar  108  PHE108     -0.0042
     63  CE1       25.0320   51.7790   28.7520 C.ar  108  PHE108     -0.0003
     64  CE2       25.6160   53.1930   26.8970 C.ar  108  PHE108     -0.0003
     65  CZ        24.6500   52.5640   27.6650 C.ar  108  PHE108     -0.0000
     66  N         31.6710   51.1330   27.2820 N.am  109  GLY109     -0.1957
     67  CA        33.1050   51.1390   27.4860 C.3   109  GLY109      0.1869
     68  C         33.4150   52.5350   27.9910 C.2   109  GLY109      0.2309
     69  O         32.5180   53.2450   28.4500 O.2   109  GLY109     -0.2863
     70  N         32.1440   48.3990   15.1260 N.3   152  GLN152     -0.1245
     71  CA        32.6660   47.0400   15.2130 C.3   152  GLN152      0.1566
     72  C         31.5570   46.0150   15.4270 C.2   152  GLN152      0.2260
     73  O         30.5760   46.2770   16.1170 O.2   152  GLN152     -0.2867
     74  CB        33.6620   46.9910   16.3760 C.3   152  GLN152      0.0367
     75  CG        34.3080   45.6490   16.6830 C.3   152  GLN152      0.0905
     76  CD        35.1620   45.7250   17.9410 C.2   152  GLN152      0.2608
     77  OE1       36.0410   46.5820   18.0530 O.2   152  GLN152     -0.2717
     78  NE2       34.9030   44.8360   18.8930 N.am  152  GLN152     -0.0878
     79  N         33.6270   34.2370   21.2460 N.3   162  ARG162     -0.1245
     80  CA        33.7350   35.2050   20.1680 C.3   162  ARG162      0.1563
     81  C         34.7100   34.6490   19.1450 C.2   162  ARG162      0.2260
     82  O         35.8430   34.2970   19.4740 O.2   162  ARG162     -0.2867
     83  CB        34.2340   36.5560   20.6710 C.3   162  ARG162      0.0307
     84  CG        34.4430   37.5480   19.5330 C.3   162  ARG162      0.0489
     85  CD        34.5270   38.9840   20.0170 C.3   162  ARG162      0.2205
     86  NE        35.7120   39.2340   20.8270 N.pl3 162  ARG162     -0.0865
     87  CZ        36.1180   40.4430   21.1910 C.cat 162  ARG162      0.5346
     88  NH1       35.4290   41.5130   20.8150 N.pl3 162  ARG162      0.1354
     89  NH2       37.2120   40.5840   21.9280 N.pl3 162  ARG162      0.1354
     90  N         41.5940   45.4610   16.8520 N.3   173  ASN173     -0.1240
     91  CA        40.8250   45.3500   18.0890 C.3   173  ASN173      0.1653
     92  C         41.3590   46.2280   19.2220 C.2   173  ASN173      0.2266
     93  O         41.4500   45.7950   20.3740 O.2   173  ASN173     -0.2867
     94  CB        40.7490   43.8960   18.5660 C.3   173  ASN173      0.1155
     95  CG        39.7700   43.7160   19.7180 C.2   173  ASN173      0.2627
     96  OD1       38.7370   44.3840   19.7680 O.2   173  ASN173     -0.2716
     97  ND2       40.0840   42.8110   20.6390 N.am  173  ASN173     -0.0877
     98  N         38.6380   50.0780   21.4810 N.3   176  TRP176     -0.1241
     99  CA        38.1440   50.2810   22.8350 C.3   176  TRP176      0.1605
    100  C         39.0800   51.1380   23.6880 C.2   176  TRP176      0.2264
    101  O         38.7040   51.5720   24.7770 O.2   176  TRP176     -0.2867
    102  CB        37.9270   48.9340   23.5240 C.3   176  TRP176      0.0550
    103  CG        39.1770   48.1280   23.6910 C.ar  176  TRP176      0.0003
    104  CD1       39.7880   47.3460   22.7530 C.ar  176  TRP176      0.0946
    105  CD2       39.9800   48.0270   24.8690 C.ar  176  TRP176      0.0152
    106  NE1       40.9140   46.7680   23.2790 N.ar  176  TRP176     -0.2442
    107  CE2       41.0560   47.1700   24.5830 C.ar  176  TRP176      0.0810
    108  CE3       39.8950   48.5830   26.1570 C.ar  176  TRP176      0.0012
    109  CZ2       42.0390   46.8500   25.5230 C.ar  176  TRP176      0.0191
    110  CZ3       40.8710   48.2660   27.0900 C.ar  176  TRP176      0.0001
    111  CH2       41.9230   47.4110   26.7700 C.ar  176  TRP176      0.0015
@<TRIPOS>BOND
     1    70    71    1
     2    71    72    1
     3    71    74    1
     4    72    73    2
     5    74    75    1
     6    75    76    1
     7    90    91    1
     8    27    26    2
     9    18    17    2
    10    76    77    2
    11    76    78   am
    12    30    32   ar
    13    30    29   ar
    14    24    25    1
    15    91    94    1
    16    91    92    1
    17    26    25    1
    18    17    16    1
    19    15    16    1
    20    28    25    1
    21    28    29    1
    22    32    34   ar
    23    94    95    1
    24    29    31   ar
    25    16    19    1
    26    81    82    2
    27    81    80    1
    28    92    93    2
    29    84    85    1
    30    84    83    1
    31    19    20    1
    32    34    33   ar
    33    95    96    2
    34    95    97   am
    35    85    86    1
    36    31    33   ar
    37    80    83    1
    38    80    79    1
    39    20    21    1
    40    22    21   ar
    41    88    87    1
    42    86    87    2
    43    21    23   ar
    44    87    89    1
    45    98    99    1
    46     4     3    2
    47    45    46    1
    48    45    44    1
    49    45    48    1
    50   104   106   ar
    51   104   103   ar
    52    99   102    1
    53    99   100    1
    54    43    41   am
    55    46    47    2
    56    49    48    1
    57    49    50    1
    58    36    39    1
    59    36    37    1
    60    36    35    1
    61     3     2    1
    62   106   107   ar
    63    40    39    1
    64    40    41    1
    65   102   103    1
    66    37    38    2
    67   100   101    2
    68   103   105   ar
    69    50    51    1
    70    41    42    2
    71    51    52    2
    72     2     5    1
    73     2     1    1
    74     5     6    1
    75   107   105   ar
    76   107   109   ar
    77    54    52    1
    78    52    53    1
    79     7     6   ar
    80     7     9   ar
    81   105   108   ar
    82     6     8   ar
    83   109   111   ar
    84     9    10   ar
    85   108   110   ar
    86     8    10   ar
    87     8    11   ar
    88   111   110   ar
    89    64    62   ar
    90    64    65   ar
    91    10    12   ar
    92    62    60   ar
    93    11    13   ar
    94    66    67    1
    95    66    57   am
    96    67    68    1
    97    65    63   ar
    98    56    57    1
    99    56    55    1
   100    56    59    1
   101    68    69    2
   102    57    58    2
   103    60    59    1
   104    60    61   ar
   105    12    14   ar
   106    13    14   ar
   107    63    61   ar
