@<TRIPOS>MOLECULE
tmp/1i8iB00.pdb
 129 129 0 0 0
SMALL
GASTEIGER

@<TRIPOS>ATOM
      1  N          8.5310   14.1270   36.4060 N.3    31  LYS31      -0.1231
      2  CA         7.2770   13.9110   35.6870 C.3    31  LYS31       0.1693
      3  C          7.4560   14.1500   34.1910 C.2    31  LYS31       0.2592
      4  O          6.5570   13.8610   33.3920 O.2    31  LYS31      -0.2718
      5  CB         6.1650   14.8570   36.1550 C.3    31  LYS31       0.0285
      6  CG         5.7120   14.7270   37.5860 C.3    31  LYS31       0.0035
      7  CD         4.8350   13.5260   37.8360 C.3    31  LYS31       0.0206
      8  CE         3.4160   13.7290   37.3210 C.3    31  LYS31       0.1093
      9  NZ         2.5970   12.5190   37.4050 N.3    31  LYS31      -0.1314
     10  N          8.5950   14.6830   33.7720 N.am   32  PHE32      -0.1962
     11  CA         8.8140   15.0720   32.3890 C.3    32  PHE32       0.1771
     12  C          9.9770   14.3840   31.6710 C.2    32  PHE32       0.2620
     13  O         11.0010   14.1030   32.2750 O.2    32  PHE32      -0.2715
     14  CB         9.0130   16.5850   32.3430 C.3    32  PHE32       0.0574
     15  CG         7.7160   17.3100   32.6580 C.ar   32  PHE32      -0.0200
     16  CD1        7.3550   17.5580   33.9930 C.ar   32  PHE32      -0.0042
     17  CD2        6.8570   17.6850   31.6140 C.ar   32  PHE32      -0.0042
     18  CE1        6.1310   18.1680   34.2800 C.ar   32  PHE32      -0.0003
     19  CE2        5.6270   18.2980   31.9140 C.ar   32  PHE32      -0.0003
     20  CZ         5.2660   18.5340   33.2430 C.ar   32  PHE32      -0.0000
     21  N          9.8130   14.0340   30.4000 N.am   33  GLY33      -0.1954
     22  CA        10.8770   13.5200   29.5580 C.3    33  GLY33       0.1869
     23  C         11.6040   14.7500   29.0640 C.2    33  GLY33       0.2309
     24  O         11.0230   15.8430   28.9390 O.2    33  GLY33      -0.2863
     25  N         13.4250    9.2820   28.9620 N.3    52  SER52      -0.1202
     26  CA        12.1700    9.1270   29.6890 C.3    52  SER52       0.2020
     27  C         12.2450    9.6370   31.1180 C.2    52  SER52       0.2619
     28  O         13.3470    9.8760   31.6170 O.2    52  SER52      -0.2717
     29  CB        11.7610    7.6520   29.6990 C.3    52  SER52       0.2103
     30  OG        12.8410    6.7830   30.0800 O.3    52  SER52      -0.2182
     31  N         11.1290    9.7430   31.8340 N.am   53  THR53      -0.1938
     32  CA        11.1320   10.2670   33.1930 C.3    53  THR53       0.2028
     33  C         12.0870    9.6200   34.2290 C.2    53  THR53       0.2643
     34  O         12.7280   10.2610   35.0740 O.2    53  THR53      -0.2714
     35  CB         9.6380   10.2200   33.6400 C.3    53  THR53       0.1808
     36  OG1        9.0640    8.9510   33.3610 O.3    53  THR53      -0.2208
     37  CG2        8.8330   11.2260   32.8740 C.3    53  THR53       0.0379
     38  N         12.1840    8.2880   34.2170 N.am   54  GLY54      -0.1939
     39  CA        13.0610    7.5780   35.1270 C.3    54  GLY54       0.2014
     40  C         14.4580    7.3570   34.5410 C.2    54  GLY54       0.2639
     41  O         15.3530    6.9450   35.2790 O.2    54  GLY54      -0.2714
     42  N         14.6640    7.5840   33.2310 N.am   55  GLY55      -0.1939
     43  CA        15.9310    7.3920   32.5650 C.3    55  GLY55       0.2014
     44  C         16.1810    5.9970   32.0010 C.2    55  GLY55       0.2639
     45  O         17.2860    5.7080   31.4920 O.2    55  GLY55      -0.2714
     46  N         15.1270    5.1470   32.0740 N.am   56  TYR56      -0.1959
     47  CA        15.1220    3.7970   31.5310 C.3    56  TYR56       0.1771
     48  C         15.0220    3.7180   30.0280 C.2    56  TYR56       0.2619
     49  O         15.2610    2.6540   29.4740 O.2    56  TYR56      -0.2715
     50  CB        13.9910    2.9950   32.0410 C.3    56  TYR56       0.0574
     51  CG        14.0520    2.7450   33.5340 C.ar   56  TYR56      -0.0198
     52  CD1       13.3540    3.5840   34.4150 C.ar   56  TYR56      -0.0009
     53  CD2       14.8230    1.6790   34.0340 C.ar   56  TYR56      -0.0009
     54  CE1       13.4190    3.3820   35.7860 C.ar   56  TYR56       0.0417
     55  CE2       14.8970    1.4660   35.4180 C.ar   56  TYR56       0.0417
     56  CZ        14.2010    2.3190   36.2680 C.ar   56  TYR56       0.1957
     57  OH        14.2870    2.1400   37.6190 O.3    56  TYR56      -0.2866
     58  N         14.6290    4.7500   29.3050 N.am   57  ASN57      -0.1972
     59  CA        14.5580    4.6880   27.8520 C.3    57  ASN57       0.1688
     60  C         15.2980    5.9090   27.3420 C.2    57  ASN57       0.2292
     61  O         15.0250    7.0200   27.8540 O.2    57  ASN57      -0.2864
     62  CB        13.1620    4.8200   27.3070 C.3    57  ASN57       0.1181
     63  CG        12.3430    3.6230   27.6700 C.2    57  ASN57       0.2629
     64  OD1       12.2420    2.6740   26.9170 O.2    57  ASN57      -0.2716
     65  ND2       11.7780    3.5740   28.8590 N.am   57  ASN57      -0.0877
     66  N         16.7950    7.6420   23.5100 N.3    59  TYR59      -0.1241
     67  CA        16.7870    7.5820   22.0650 C.3    59  TYR59       0.1605
     68  C         17.8680    8.5510   21.5900 C.2    59  TYR59       0.2264
     69  O         18.0530    9.5610   22.2720 O.2    59  TYR59      -0.2867
     70  CB        15.4610    8.0430   21.5590 C.3    59  TYR59       0.0534
     71  CG        14.3750    7.2390   22.1730 C.ar   59  TYR59      -0.0201
     72  CD1       13.8120    7.6880   23.3680 C.ar   59  TYR59      -0.0009
     73  CD2       13.9970    6.0430   21.5660 C.ar   59  TYR59      -0.0009
     74  CE1       12.8430    6.9160   23.9920 C.ar   59  TYR59       0.0417
     75  CE2       13.0250    5.2820   22.1980 C.ar   59  TYR59       0.0417
     76  CZ        12.4620    5.7290   23.3990 C.ar   59  TYR59       0.1957
     77  OH        11.5040    4.9730   24.0130 O.3    59  TYR59      -0.2866
     78  N          9.9270   17.9780   27.2060 N.3    99  GLY99      -0.1210
     79  CA         8.7740   17.3630   26.5390 C.3    99  GLY99       0.1956
     80  C          7.4870   17.8820   27.2140 C.2    99  GLY99       0.2611
     81  O          7.3250   17.8660   28.4530 O.2    99  GLY99      -0.2717
     82  N          6.5220   18.2930   26.3850 N.am  100  TYR100     -0.1976
     83  CA         5.3850   19.0150   26.9110 C.3   100  TYR100      0.1639
     84  C          4.3580   18.2010   27.6560 C.2   100  TYR100      0.2290
     85  O          3.6800   18.7670   28.5180 O.2   100  TYR100     -0.2864
     86  CB         4.7280   19.8360   25.7680 C.3   100  TYR100      0.0560
     87  CG         3.6660   19.1770   24.9250 C.ar  100  TYR100     -0.0198
     88  CD1        3.9880   18.1230   24.0800 C.ar  100  TYR100     -0.0009
     89  CD2        2.3730   19.6890   24.9640 C.ar  100  TYR100     -0.0009
     90  CE1        3.0170   17.5980   23.2600 C.ar  100  TYR100      0.0417
     91  CE2        1.3850   19.1590   24.1360 C.ar  100  TYR100      0.0417
     92  CZ         1.7300   18.1280   23.2900 C.ar  100  TYR100      0.1957
     93  OH         0.8100   17.6670   22.3930 O.3   100  TYR100     -0.2866
     94  N          3.6280   13.8610   28.9490 N.3   102  SER102     -0.1202
     95  CA         3.6750   12.3920   29.1630 C.3   102  SER102      0.2020
     96  C          3.9250   11.2920   28.1830 C.2   102  SER102      0.2619
     97  O          4.4620   10.2540   28.5770 O.2   102  SER102     -0.2717
     98  CB         2.4350   11.8670   29.8190 C.3   102  SER102      0.2103
     99  OG         2.3170   12.5600   31.0150 O.3   102  SER102     -0.2182
    100  N          3.4830   11.5990   26.9700 N.am  103  THR103     -0.1938
    101  CA         3.4140   10.7870   25.7950 C.3   103  THR103      0.2028
    102  C          4.2120   11.3540   24.6190 C.2   103  THR103      0.2643
    103  O          4.4580   10.6220   23.6400 O.2   103  THR103     -0.2714
    104  CB         1.8940   10.7150   25.6710 C.3   103  THR103      0.1808
    105  OG1        1.6140    9.4830   26.3110 O.3   103  THR103     -0.2208
    106  CG2        1.2920   10.7920   24.3090 C.3   103  THR103      0.0379
    107  N          4.6140   12.6270   24.7230 N.am  104  SER104     -0.1935
    108  CA         5.3140   13.2910   23.6720 C.3   104  SER104      0.2055
    109  C          6.6160   13.9280   24.1130 C.2   104  SER104      0.2643
    110  O          6.7150   14.4600   25.2190 O.2   104  SER104     -0.2714
    111  CB         4.4710   14.3780   23.0670 C.3   104  SER104      0.2130
    112  OG         4.9210   14.6800   21.7290 O.3   104  SER104     -0.2179
    113  N          7.5900   13.8510   23.2010 N.am  105  TYR105     -0.1959
    114  CA         8.8670   14.5380   23.3730 C.3   105  TYR105      0.1771
    115  C          8.8290   15.9350   22.7480 C.2   105  TYR105      0.2619
    116  O          9.7990   16.6840   22.8640 O.2   105  TYR105     -0.2715
    117  CB        10.0520   13.7490   22.7530 C.3   105  TYR105      0.0574
    118  CG        10.5420   12.6740   23.7160 C.ar  105  TYR105     -0.0198
    119  CD1       10.9750   13.0050   25.0200 C.ar  105  TYR105     -0.0009
    120  CD2       10.5080   11.3350   23.3280 C.ar  105  TYR105     -0.0009
    121  CE1       11.3540   11.9950   25.9170 C.ar  105  TYR105      0.0417
    122  CE2       10.8770   10.3140   24.2190 C.ar  105  TYR105      0.0417
    123  CZ        11.2890   10.6590   25.4960 C.ar  105  TYR105      0.1957
    124  OH        11.5960    9.6480   26.3730 O.3   105  TYR105     -0.2866
    125  N          7.7100   16.3410   22.1310 N.am  106  ALA106     -0.1977
    126  CA         7.5780   17.6720   21.5560 C.3   106  ALA106      0.1597
    127  C          7.8610   18.6610   22.6770 C.2   106  ALA106      0.2287
    128  O          7.4730   18.5050   23.8370 O.2   106  ALA106     -0.2864
    129  CB         6.1710   17.8870   21.0370 C.3   106  ALA106      0.0319
@<TRIPOS>BOND
     1   129   126    1
     2   126   125    1
     3   126   127    1
     4    70    67    1
     5    70    71    1
     6    73    71   ar
     7    73    75   ar
     8    68    67    1
     9    68    69    2
    10   112   111    1
    11    67    66    1
    12   125   115   am
    13    71    72   ar
    14    75    76   ar
    15    93    92    1
    16   127   128    2
    17   115   116    2
    18   115   114    1
    19   117   114    1
    20   117   118    1
    21   111   108    1
    22   113   114    1
    23   113   109   am
    24    90    92   ar
    25    90    88   ar
    26    92    91   ar
    27   120   118   ar
    28   120   122   ar
    29    72    74   ar
    30    76    74   ar
    31    76    77    1
    32   103   102    2
    33   108   109    1
    34   108   107    1
    35   118   119   ar
    36    88    87   ar
    37   109   110    2
    38    91    89   ar
    39   122   123   ar
    40   106   104    1
    41   102   107   am
    42   102   101    1
    43    87    89   ar
    44    87    86    1
    45   119   121   ar
    46   123   121   ar
    47   123   124    1
    48   104   101    1
    49   104   105    1
    50    86    83    1
    51   101   100    1
    52    82    83    1
    53    82    80   am
    54    79    78    1
    55    79    80    1
    56    83    84    1
    57    64    63    2
    58   100    96   am
    59    80    81    2
    60    62    63    1
    61    62    59    1
    62    60    59    1
    63    60    61    2
    64    84    85    2
    65    63    65   am
    66    59    58    1
    67    96    97    2
    68    96    95    1
    69    24    23    2
    70    94    95    1
    71    25    26    1
    72    23    22    1
    73    95    98    1
    74    58    48   am
    75    49    48    2
    76    22    21    1
    77    26    29    1
    78    26    27    1
    79    29    30    1
    80    98    99    1
    81    48    47    1
    82    21    12   am
    83    27    28    2
    84    27    31   am
    85    45    44    2
    86    47    50    1
    87    47    46    1
    88    17    19   ar
    89    17    15   ar
    90    12    13    2
    91    12    11    1
    92    31    32    1
    93    19    20   ar
    94    44    46   am
    95    44    43    1
    96    50    51    1
    97    14    11    1
    98    14    15    1
    99    11    10    1
   100    43    42    1
   101    15    16   ar
   102    37    35    1
   103    32    35    1
   104    32    33    1
   105    42    40   am
   106    20    18   ar
   107    36    35    1
   108     4     3    2
   109    51    53   ar
   110    51    52   ar
   111    10     3   am
   112    16    18   ar
   113    53    55   ar
   114     3     2    1
   115    38    33   am
   116    38    39    1
   117    33    34    2
   118    52    54   ar
   119    40    39    1
   120    40    41    2
   121    55    56   ar
   122     2     5    1
   123     2     1    1
   124    54    56   ar
   125     5     6    1
   126    56    57    1
   127     8     9    1
   128     8     7    1
   129     6     7    1
