@<TRIPOS>MOLECULE
tmp/1i8jB00.pdb
 164 154 0 0 0
SMALL
GASTEIGER

@<TRIPOS>ATOM
      1  N         29.9550   84.4630   14.2710 N.3    78  PHE78      -0.1241
      2  CA        29.2760   85.7180   13.9940 C.3    78  PHE78       0.1605
      3  C         30.3050   86.5270   13.1650 C.2    78  PHE78       0.2264
      4  O         31.4170   86.7830   13.6300 O.2    78  PHE78      -0.2867
      5  CB        28.9740   86.4650   15.3030 C.3    78  PHE78       0.0534
      6  CG        27.9600   85.7670   16.1860 C.ar   78  PHE78      -0.0203
      7  CD1       26.6060   85.9410   15.9720 C.ar   78  PHE78      -0.0042
      8  CD2       28.3710   84.9580   17.2360 C.ar   78  PHE78      -0.0042
      9  CE1       25.6790   85.3270   16.7880 C.ar   78  PHE78      -0.0003
     10  CE2       27.4430   84.3430   18.0570 C.ar   78  PHE78      -0.0003
     11  CZ        26.1030   84.5280   17.8330 C.ar   78  PHE78      -0.0000
     12  N         26.1550   80.9150   13.0140 N.3   117  ASP117     -0.1239
     13  CA        24.9620   81.7480   13.2200 C.3   117  ASP117      0.1674
     14  C         24.3260   81.9650   11.8390 C.2   117  ASP117      0.2266
     15  O         25.0270   82.2390   10.8470 O.2   117  ASP117     -0.2867
     16  CB        25.2930   83.0860   13.8910 C.3   117  ASP117      0.1410
     17  CG        24.0350   83.8980   14.1890 C.2   117  ASP117      0.3668
     18  OD1       23.1710   83.3610   14.9400 O.co2 117  ASP117     -0.2456
     19  OD2       23.8820   85.0560   13.6720 O.co2 117  ASP117     -0.2456
     20  N         21.0870   90.1890   10.0220 N.3   121  CYS121     -0.1235
     21  CA        21.2530   91.4780   10.6870 C.3   121  CYS121      0.1677
     22  C         22.6950   91.9970   10.6450 C.2   121  CYS121      0.2270
     23  O         22.9210   93.1970   10.7590 O.2   121  CYS121     -0.2867
     24  CB        20.7480   91.4240   12.1450 C.3   121  CYS121      0.0956
     25  SG        21.5010   90.1330   13.2030 S.3   121  CYS121     -0.0801
     26  N         17.0010   91.5300   10.6730 N.3   129  CYS129     -0.1235
     27  CA        17.1830   90.0790   10.4410 C.3   129  CYS129      0.1677
     28  C         16.5670   89.4780    9.1780 C.2   129  CYS129      0.2270
     29  O         16.1570   88.3130    9.1830 O.2   129  CYS129     -0.2867
     30  CB        16.6760   89.3040   11.6640 C.3   129  CYS129      0.0956
     31  SG        17.5370   89.8840   13.1760 S.3   129  CYS129     -0.0801
     32  N         18.9420   82.3330   13.7420 N.3   164  SER164     -0.1217
     33  CA        18.5870   83.2900   14.7830 C.3   164  SER164      0.1889
     34  C         17.7440   84.4720   14.2300 C.2   164  SER164      0.2288
     35  O         17.6810   85.5460   14.8590 O.2   164  SER164     -0.2866
     36  CB        19.8580   83.8300   15.4270 C.3   164  SER164      0.2089
     37  OG        20.5490   84.6560   14.4970 O.3   164  SER164     -0.2183
     38  N         17.4340   78.7480   17.4500 N.3   191  TYR191     -0.1241
     39  CA        17.3000   79.7560   18.5400 C.3   191  TYR191      0.1605
     40  C         15.7700   79.7390   18.5680 C.2   191  TYR191      0.2264
     41  O         15.0990   80.7090   18.1030 O.2   191  TYR191     -0.2867
     42  CB        17.7300   81.1650   18.0910 C.3   191  TYR191      0.0534
     43  CG        19.2120   81.4710   18.0410 C.ar  191  TYR191     -0.0201
     44  CD1       20.0470   80.9300   17.0220 C.ar  191  TYR191     -0.0009
     45  CD2       19.7800   82.3430   18.9810 C.ar  191  TYR191     -0.0009
     46  CE1       21.4490   81.2630   16.9430 C.ar  191  TYR191      0.0417
     47  CE2       21.1700   82.6860   18.9270 C.ar  191  TYR191      0.0417
     48  CZ        21.9870   82.1470   17.9110 C.ar  191  TYR191      0.1957
     49  OH        23.2960   82.5230   17.8780 O.3   191  TYR191     -0.2866
     50  N         13.5220   82.9090   21.1360 N.3   194  LYS194     -0.1245
     51  CA        14.4010   84.0820   21.0630 C.3   194  LYS194      0.1561
     52  C         13.5740   85.2910   21.3950 C.2   194  LYS194      0.2260
     53  O         12.7640   85.7210   20.5490 O.2   194  LYS194     -0.2867
     54  CB        14.9440   84.2610   19.6630 C.3   194  LYS194      0.0271
     55  CG        16.2690   84.9170   19.6600 C.3   194  LYS194      0.0035
     56  CD        16.6320   85.3840   18.2740 C.3   194  LYS194      0.0206
     57  CE        18.1270   85.3350   17.9700 C.3   194  LYS194      0.1093
     58  NZ        18.9540   86.2290   18.7570 N.3   194  LYS194     -0.1314
     59  N         20.8150   92.6820   24.4490 N.3   200  TYR200     -0.1241
     60  CA        21.6770   92.4200   23.2890 C.3   200  TYR200      0.1605
     61  C         22.5370   93.6330   22.8210 C.2   200  TYR200      0.2264
     62  O         23.2720   93.5200   21.8500 O.2   200  TYR200     -0.2867
     63  CB        20.8420   91.9090   22.1100 C.3   200  TYR200      0.0534
     64  CG        19.8530   90.7940   22.4120 C.ar  200  TYR200     -0.0201
     65  CD1       20.1560   89.7480   23.2950 C.ar  200  TYR200     -0.0009
     66  CD2       18.6520   90.7340   21.7200 C.ar  200  TYR200     -0.0009
     67  CE1       19.2730   88.6710   23.4600 C.ar  200  TYR200      0.0417
     68  CE2       17.7650   89.6600   21.8800 C.ar  200  TYR200      0.0417
     69  CZ        18.0770   88.6320   22.7460 C.ar  200  TYR200      0.1957
     70  OH        17.1760   87.5780   22.8410 O.3   200  TYR200     -0.2866
     71  N         26.3010   92.9020   22.2630 N.3   203  PHE203     -0.1227
     72  CA        26.4400   92.0170   21.0840 C.3   203  PHE203      0.1736
     73  C         26.3430   92.7890   19.7750 C.2   203  PHE203      0.2595
     74  O         27.1480   92.5870   18.8590 O.2   203  PHE203     -0.2718
     75  CB        25.3360   90.9490   21.0270 C.3   203  PHE203      0.0547
     76  CG        25.3520   90.1110   19.7590 C.ar  203  PHE203     -0.0202
     77  CD1       26.2740   89.0530   19.6080 C.ar  203  PHE203     -0.0042
     78  CD2       24.5070   90.4400   18.6630 C.ar  203  PHE203     -0.0042
     79  CE1       26.3880   88.3270   18.3840 C.ar  203  PHE203     -0.0003
     80  CE2       24.5900   89.7190   17.3860 C.ar  203  PHE203     -0.0003
     81  CZ        25.5420   88.6630   17.2520 C.ar  203  PHE203     -0.0000
     82  N         25.3240   93.6350   19.6520 N.am  204  ARG204     -0.1980
     83  CA        25.1560   94.4200   18.4200 C.3   204  ARG204      0.1597
     84  C         26.4120   95.2750   18.1360 C.2   204  ARG204      0.2287
     85  O         26.8190   95.4310   16.9770 O.2   204  ARG204     -0.2864
     86  CB        23.8760   95.2640   18.5230 C.3   204  ARG204      0.0334
     87  CG        22.6280   94.3810   18.3330 C.3   204  ARG204      0.0492
     88  CD        21.3120   95.1250   18.4660 C.3   204  ARG204      0.2205
     89  NE        20.2520   94.1350   18.4680 N.pl3 204  ARG204     -0.0865
     90  CZ        18.9950   94.3670   18.8000 C.cat 204  ARG204      0.5346
     91  NH1       18.6100   95.5870   19.1540 N.pl3 204  ARG204      0.1354
     92  NH2       18.1390   93.3540   18.8270 N.pl3 204  ARG204      0.1354
     93  N         25.8640   95.2130   14.0430 N.3   209  SER209     -0.1217
     94  CA        24.4970   95.2020   13.5440 C.3   209  SER209      0.1889
     95  C         23.9090   96.5990   13.4530 C.2   209  SER209      0.2288
     96  O         23.5360   97.2270   14.4770 O.2   209  SER209     -0.2866
     97  CB        23.5980   94.3320   14.3980 C.3   209  SER209      0.2089
     98  OG        22.2910   94.4410   13.8710 O.3   209  SER209     -0.2183
     99  N         13.3820   94.7310   17.2270 N.3   215  ARG215     -0.1245
    100  CA        13.0820   93.4620   16.6090 C.3   215  ARG215      0.1563
    101  C         11.8080   92.8720   17.1410 C.2   215  ARG215      0.2260
    102  O         11.5610   91.6860   16.9900 O.2   215  ARG215     -0.2867
    103  CB        14.2440   92.4900   16.8470 C.3   215  ARG215      0.0307
    104  CG        15.6040   93.0360   16.4290 C.3   215  ARG215      0.0489
    105  CD        16.6490   91.9080   16.3420 C.3   215  ARG215      0.2205
    106  NE        17.9840   92.4210   16.0500 N.pl3 215  ARG215     -0.0865
    107  CZ        18.3300   93.0050   14.8940 C.cat 215  ARG215      0.5346
    108  NH1       17.4410   93.1400   13.9030 N.pl3 215  ARG215      0.1354
    109  NH2       19.5550   93.4980   14.7340 N.pl3 215  ARG215      0.1354
    110  N         11.2190   88.8490   17.0830 N.3   219  GLN219     -0.1245
    111  CA        11.7290   88.1970   18.2940 C.3   219  GLN219      0.1566
    112  C         10.4950   88.3110   19.2360 C.2   219  GLN219      0.2260
    113  O          9.7360   89.3070   19.1700 O.2   219  GLN219     -0.2867
    114  CB        12.9570   88.9390   18.8300 C.3   219  GLN219      0.0367
    115  CG        14.1410   88.7920   17.9390 C.3   219  GLN219      0.0905
    116  CD        15.3500   89.4380   18.5220 C.2   219  GLN219      0.2608
    117  OE1       16.4830   89.1940   18.0970 O.2   219  GLN219     -0.2717
    118  NE2       15.1360   90.2640   19.5070 N.am  219  GLN219     -0.0878
    119  N         16.9100   82.0560   24.5870 N.3   246  LYS246     -0.1245
    120  CA        17.7640   83.2460   24.6010 C.3   246  LYS246      0.1561
    121  C         16.9540   84.5240   24.8180 C.2   246  LYS246      0.2260
    122  O         15.9300   84.7470   24.1570 O.2   246  LYS246     -0.2867
    123  CB        18.5590   83.3500   23.3000 C.3   246  LYS246      0.0271
    124  CG        19.2460   84.7050   22.9840 C.3   246  LYS246      0.0035
    125  CD        20.0210   84.5700   21.6420 C.3   246  LYS246      0.0206
    126  CE        19.9890   85.7820   20.7790 C.3   246  LYS246      0.1093
    127  NZ        21.2310   86.5170   20.7230 N.3   246  LYS246     -0.1314
    128  N         21.4860   80.6030   25.8580 N.3   269  TYR269     -0.1241
    129  CA        22.4990   81.5830   25.5440 C.3   269  TYR269      0.1605
    130  C         22.7100   82.6310   26.6410 C.2   269  TYR269      0.2264
    131  O         21.8210   83.4710   26.9060 O.2   269  TYR269     -0.2867
    132  CB        22.1300   82.2200   24.1870 C.3   269  TYR269      0.0534
    133  CG        23.2910   82.7670   23.3590 C.ar  269  TYR269     -0.0201
    134  CD1       24.1740   83.7500   23.8820 C.ar  269  TYR269     -0.0009
    135  CD2       23.4670   82.3620   22.0250 C.ar  269  TYR269     -0.0009
    136  CE1       25.2070   84.3090   23.0900 C.ar  269  TYR269      0.0417
    137  CE2       24.5020   82.9320   21.2060 C.ar  269  TYR269      0.0417
    138  CZ        25.3670   83.9000   21.7460 C.ar  269  TYR269      0.1957
    139  OH        26.3710   84.4360   20.9530 O.3   269  TYR269     -0.2866
    140  N         23.7040   85.6990   27.2080 N.3   271  VAL271     -0.1231
    141  CA        23.9090   86.8350   26.3200 C.3   271  VAL271      0.1692
    142  C         24.9600   87.9160   26.6770 C.2   271  VAL271      0.2592
    143  O         25.4480   88.0120   27.8060 O.2   271  VAL271     -0.2718
    144  CB        22.4880   87.5040   25.9610 C.3   271  VAL271      0.0266
    145  CG1       21.5750   86.4650   25.1870 C.3   271  VAL271      0.0020
    146  CG2       21.7950   88.1080   27.2480 C.3   271  VAL271      0.0020
    147  N         25.3240   88.7120   25.6690 N.am  272  SER272     -0.1952
    148  CA        26.3280   89.7670   25.8430 C.3   272  SER272      0.1924
    149  C         25.9890   90.6600   27.0260 C.2   272  SER272      0.2314
    150  O         26.8820   91.0470   27.7750 O.2   272  SER272     -0.2863
    151  CB        26.4370   90.5980   24.5620 C.3   272  SER272      0.2116
    152  OG        25.2200   91.2590   24.2940 O.3   272  SER272     -0.2180
    153  N         30.4470   83.7340   26.6580 N.3   311  TYR311     -0.1241
    154  CA        31.6120   84.5000   26.2030 C.3   311  TYR311      0.1605
    155  C         32.7540   84.3170   27.2110 C.2   311  TYR311      0.2264
    156  O         33.8720   84.7730   26.9800 O.2   311  TYR311     -0.2867
    157  CB        31.2710   86.0160   26.0530 C.3   311  TYR311      0.0534
    158  CG        30.2280   86.3380   25.0040 C.ar  311  TYR311     -0.0201
    159  CD1       30.5120   86.2120   23.6560 C.ar  311  TYR311     -0.0009
    160  CD2       28.9380   86.6820   25.3800 C.ar  311  TYR311     -0.0009
    161  CE1       29.5120   86.4130   22.6820 C.ar  311  TYR311      0.0417
    162  CE2       27.9310   86.8740   24.4320 C.ar  311  TYR311      0.0417
    163  CZ        28.2090   86.7350   23.0790 C.ar  311  TYR311      0.1957
    164  OH        27.1670   86.8610   22.1580 O.3   311  TYR311     -0.2866
@<TRIPOS>BOND
     1    28    29    2
     2    28    27    1
     3    20    21    1
     4    27    26    1
     5    27    30    1
     6    22    21    1
     7    22    23    2
     8    21    24    1
     9    15    14    2
    10    30    31    1
    11    14    13    1
    12    24    25    1
    13    12    13    1
    14     3     4    2
    15     3     2    1
    16    13    16    1
    17    95    94    1
    18    95    96    2
    19    94    93    1
    20    94    97    1
    21    19    17   ar
    22    32    33    1
    23    98    97    1
    24    16    17    1
    25   108   107    1
    26     2     1    1
    27     2     5    1
    28    17    18   ar
    29    34    33    1
    30    34    35    2
    31    37    36    1
    32   109   107    1
    33    33    36    1
    34   107   106    2
    35     5     6    1
    36     7     6   ar
    37     7     9   ar
    38   106   105    1
    39     6     8   ar
    40   105   104    1
    41   104   103    1
    42   100   103    1
    43   100   101    1
    44   100    99    1
    45     9    11   ar
    46    46    44   ar
    47    46    48   ar
    48    85    84    2
    49   102   101    2
    50    44    43   ar
    51   110   111    1
    52     8    10   ar
    53    81    80   ar
    54    81    79   ar
    55    80    78   ar
    56    38    39    1
    57    11    10   ar
    58    49    48    1
    59    48    47   ar
    60   115   116    1
    61   115   114    1
    62    57    56    1
    63    57    58    1
    64    43    42    1
    65    43    45   ar
    66    42    39    1
    67   117   116    2
    68    41    40    2
    69    84    83    1
    70    56    55    1
    71   111   114    1
    72   111   112    1
    73    87    88    1
    74    87    86    1
    75    79    77   ar
    76    83    86    1
    77    83    82    1
    78    88    89    1
    79    89    90    2
    80   116   118   am
    81    39    40    1
    82    78    76   ar
    83    90    92    1
    84    90    91    1
    85    74    73    2
    86    47    45   ar
    87   113   112    2
    88    77    76   ar
    89    82    73   am
    90    55    54    1
    91    54    51    1
    92    76    75    1
    93    73    72    1
    94    53    52    2
    95   127   126    1
    96   126   125    1
    97   139   138    1
    98    75    72    1
    99    51    50    1
   100    51    52    1
   101    72    71    1
   102   137   138   ar
   103   137   135   ar
   104   125   124    1
   105    66    68   ar
   106    66    64   ar
   107   138   136   ar
   108    62    61    2
   109    68    69   ar
   110   135   133   ar
   111    63    64    1
   112    63    60    1
   113   164   163    1
   114    64    65   ar
   115   161   163   ar
   116   161   159   ar
   117    69    70    1
   118    69    67   ar
   119    61    60    1
   120   124   123    1
   121   163   162   ar
   122   136   134   ar
   123    60    59    1
   124    65    67   ar
   125   123   120    1
   126   133   134   ar
   127   133   132    1
   128   159   158   ar
   129   122   121    2
   130   132   129    1
   131   152   151    1
   132   162   160   ar
   133   151   148    1
   134   119   120    1
   135   120   121    1
   136   158   160   ar
   137   158   157    1
   138   145   144    1
   139   129   128    1
   140   129   130    1
   141   147   148    1
   142   147   142   am
   143   148   149    1
   144   144   141    1
   145   144   146    1
   146   157   154    1
   147   154   153    1
   148   154   155    1
   149   141   142    1
   150   141   140    1
   151   130   131    2
   152   142   143    2
   153   156   155    2
   154   149   150    2
