@<TRIPOS>MOLECULE
tmp/1i8kB00.pdb
 119 117 0 0 0
SMALL
GASTEIGER

@<TRIPOS>ATOM
      1  N          8.6320   13.8110   35.9850 N.3    31  LYS31      -0.1231
      2  CA         7.3480   13.5300   35.3280 C.3    31  LYS31       0.1693
      3  C          7.4580   13.8290   33.8310 C.2    31  LYS31       0.2592
      4  O          6.4830   13.6480   33.0940 O.2    31  LYS31      -0.2718
      5  CB         6.2150   14.4090   35.9340 C.3    31  LYS31       0.0285
      6  CG         5.5880   14.0160   37.2870 C.3    31  LYS31       0.0035
      7  CD         4.4940   12.9640   37.1800 C.3    31  LYS31       0.0206
      8  CE         3.1570   13.4700   36.6900 C.3    31  LYS31       0.1093
      9  NZ         2.3020   12.2850   36.6020 N.3    31  LYS31      -0.1314
     10  N          8.6070   14.2970   33.3340 N.am   32  PHE32      -0.1962
     11  CA         8.7420   14.6840   31.9460 C.3    32  PHE32       0.1771
     12  C          9.9050   14.0070   31.2360 C.2    32  PHE32       0.2620
     13  O         10.9390   13.7470   31.8530 O.2    32  PHE32      -0.2715
     14  CB         8.9310   16.1990   31.8430 C.3    32  PHE32       0.0574
     15  CG         7.6740   16.9280   32.3000 C.ar   32  PHE32      -0.0200
     16  CD1        7.4690   17.2180   33.6540 C.ar   32  PHE32      -0.0042
     17  CD2        6.7200   17.3130   31.3560 C.ar   32  PHE32      -0.0042
     18  CE1        6.3140   17.8920   34.0640 C.ar   32  PHE32      -0.0003
     19  CE2        5.5640   17.9880   31.7650 C.ar   32  PHE32      -0.0003
     20  CZ         5.3720   18.2720   33.1050 C.ar   32  PHE32      -0.0000
     21  N          9.7070   13.6520   29.9620 N.am   33  GLY33      -0.1954
     22  CA        10.7930   13.1750   29.1190 C.3    33  GLY33       0.1869
     23  C         11.5560   14.4150   28.6460 C.2    33  GLY33       0.2309
     24  O         11.0310   15.5510   28.6630 O.2    33  GLY33      -0.2863
     25  N         13.3720    8.9910   28.5350 N.3    52  SER52      -0.1202
     26  CA        12.1570    8.8590   29.3120 C.3    52  SER52       0.2020
     27  C         12.2780    9.4090   30.7270 C.2    52  SER52       0.2619
     28  O         13.3940    9.6370   31.2360 O.2    52  SER52      -0.2717
     29  CB        11.7990    7.3770   29.3130 C.3    52  SER52       0.2103
     30  OG        12.8410    6.6230   29.9200 O.3    52  SER52      -0.2182
     31  N         11.1360    9.5070   31.4210 N.am   53  THR53      -0.1938
     32  CA        11.0650   10.0770   32.7410 C.3    53  THR53       0.2028
     33  C         12.0560    9.5240   33.7710 C.2    53  THR53       0.2642
     34  O         12.6780   10.2660   34.5260 O.2    53  THR53      -0.2714
     35  CB         9.6070    9.9240   33.2700 C.3    53  THR53       0.1808
     36  OG1        9.2310    8.5570   33.1700 O.3    53  THR53      -0.2208
     37  CG2        8.6240   10.8060   32.4850 C.3    53  THR53       0.0379
     38  N         12.2340    8.2110   33.7860 N.am   54  GLY54      -0.1954
     39  CA        13.1310    7.6060   34.7450 C.3    54  GLY54       0.1869
     40  C         14.4880    7.3010   34.1320 C.2    54  GLY54       0.2309
     41  O         15.4270    6.9210   34.8460 O.2    54  GLY54      -0.2863
     42  N         14.9310    4.8860   31.7840 N.3    56  TYR56      -0.1227
     43  CA        14.9360    3.4900   31.3330 C.3    56  TYR56       0.1736
     44  C         14.9130    3.3240   29.8170 C.2    56  TYR56       0.2595
     45  O         15.2660    2.2660   29.2820 O.2    56  TYR56      -0.2718
     46  CB        13.7310    2.7240   31.9210 C.3    56  TYR56       0.0548
     47  CG        13.8630    2.5430   33.4330 C.ar   56  TYR56      -0.0200
     48  CD1       13.3020    3.4590   34.3300 C.ar   56  TYR56      -0.0009
     49  CD2       14.5780    1.4330   33.9140 C.ar   56  TYR56      -0.0009
     50  CE1       13.4620    3.2570   35.7060 C.ar   56  TYR56       0.0417
     51  CE2       14.7490    1.2270   35.2830 C.ar   56  TYR56       0.0417
     52  CZ        14.1910    2.1440   36.1760 C.ar   56  TYR56       0.1957
     53  OH        14.3840    1.9890   37.5450 O.3    56  TYR56      -0.2866
     54  N         14.4930    4.3600   29.0830 N.am   57  ASN57      -0.1974
     55  CA        14.4230    4.2840   27.6280 C.3    57  ASN57       0.1688
     56  C         15.1560    5.4650   27.0540 C.2    57  ASN57       0.2292
     57  O         14.8920    6.6100   27.4770 O.2    57  ASN57      -0.2864
     58  CB        12.9560    4.3150   27.1210 C.3    57  ASN57       0.1181
     59  CG        12.2690    3.0010   27.4680 C.2    57  ASN57       0.2629
     60  OD1       12.4840    2.0130   26.7930 O.2    57  ASN57      -0.2716
     61  ND2       11.5230    2.8110   28.5350 N.am   57  ASN57      -0.0877
     62  N         16.8040    7.1140   23.2220 N.3    59  TYR59      -0.1241
     63  CA        16.6920    7.0370   21.7590 C.3    59  TYR59       0.1605
     64  C         17.7140    8.0080   21.1910 C.2    59  TYR59       0.2264
     65  O         17.8270    9.1110   21.7280 O.2    59  TYR59      -0.2867
     66  CB        15.2840    7.4660   21.3090 C.3    59  TYR59       0.0534
     67  CG        14.2370    6.6240   21.9950 C.ar   59  TYR59      -0.0201
     68  CD1       13.6330    7.0860   23.1790 C.ar   59  TYR59      -0.0009
     69  CD2       13.9120    5.3620   21.4650 C.ar   59  TYR59      -0.0009
     70  CE1       12.6970    6.2860   23.8500 C.ar   59  TYR59       0.0417
     71  CE2       12.9680    4.5600   22.1370 C.ar   59  TYR59       0.0417
     72  CZ        12.3710    5.0320   23.3210 C.ar   59  TYR59       0.1957
     73  OH        11.4160    4.2710   23.9600 O.3    59  TYR59      -0.2866
     74  N          9.9290   17.3290   26.7020 N.3    99  GLY99      -0.1225
     75  CA         8.7920   16.7400   25.9900 C.3    99  GLY99       0.1811
     76  C          7.5440   17.3290   26.6850 C.2    99  GLY99       0.2280
     77  O          7.4420   17.3430   27.9380 O.2    99  GLY99      -0.2866
     78  N          4.3340   16.3960   26.7950 N.3   101  SER101     -0.1202
     79  CA         3.2660   15.5610   27.3400 C.3   101  SER101      0.2020
     80  C          3.8510   14.2670   27.8940 C.2   101  SER101      0.2619
     81  O          5.0060   13.9080   27.6060 O.2   101  SER101     -0.2717
     82  CB         2.2500   15.1810   26.2540 C.3   101  SER101      0.2103
     83  OG         2.7200   14.1170   25.4080 O.3   101  SER101     -0.2182
     84  N          3.0550   13.4600   28.5950 N.am  102  SER102     -0.1937
     85  CA         3.5980   12.2240   29.1600 C.3   102  SER102      0.2055
     86  C          3.8060   11.1310   28.1110 C.2   102  SER102      0.2644
     87  O          4.3140   10.0410   28.4010 O.2   102  SER102     -0.2714
     88  CB         2.6440   11.7840   30.2580 C.3   102  SER102      0.2130
     89  OG         1.4060   11.5380   29.6300 O.3   102  SER102     -0.2179
     90  N          3.4700   11.4190   26.8500 N.am  103  THR103     -0.1936
     91  CA         3.5190   10.4860   25.7500 C.3   103  THR103      0.2028
     92  C          4.2940   11.0140   24.5310 C.2   103  THR103      0.2643
     93  O          4.5600   10.2470   23.5900 O.2   103  THR103     -0.2714
     94  CB         2.0010   10.2390   25.5980 C.3   103  THR103      0.1808
     95  OG1        1.7710    8.8840   25.9960 O.3   103  THR103     -0.2208
     96  CG2        1.5050   10.7240   24.3210 C.3   103  THR103      0.0379
     97  N          4.6850   12.2970   24.5460 N.am  104  SER104     -0.1935
     98  CA         5.3440   12.8910   23.3960 C.3   104  SER104      0.2055
     99  C          6.6620   13.5900   23.7570 C.2   104  SER104      0.2643
    100  O          6.7610   14.2810   24.7930 O.2   104  SER104     -0.2714
    101  CB         4.4360   13.9340   22.7670 C.3   104  SER104      0.2130
    102  OG         4.9890   14.5050   21.5780 O.3   104  SER104     -0.2179
    103  N          7.6190   13.4800   22.8220 N.am  105  TYR105     -0.1959
    104  CA         8.8740   14.2250   22.9390 C.3   105  TYR105      0.1771
    105  C          8.8070   15.5500   22.1940 C.2   105  TYR105      0.2619
    106  O          9.7660   16.3320   22.2640 O.2   105  TYR105     -0.2715
    107  CB        10.1180   13.4160   22.4110 C.3   105  TYR105      0.0574
    108  CG        10.5500   12.3300   23.4020 C.ar  105  TYR105     -0.0198
    109  CD1       10.9700   12.6750   24.7100 C.ar  105  TYR105     -0.0009
    110  CD2       10.5160   10.9860   23.0210 C.ar  105  TYR105     -0.0009
    111  CE1       11.3410   11.6650   25.6130 C.ar  105  TYR105      0.0417
    112  CE2       10.8860    9.9710   23.9250 C.ar  105  TYR105      0.0417
    113  CZ        11.2950   10.3190   25.2040 C.ar  105  TYR105      0.1957
    114  OH        11.6840    9.3400   26.0980 O.3   105  TYR105     -0.2866
    115  N          7.6810   15.8870   21.5280 N.am  106  ALA106     -0.1977
    116  CA         7.5050   17.2250   20.9350 C.3   106  ALA106      0.1597
    117  C          7.8220   18.2910   22.0060 C.2   106  ALA106      0.2287
    118  O          7.3750   18.2010   23.1600 O.2   106  ALA106     -0.2864
    119  CB         6.0540   17.4220   20.4530 C.3   106  ALA106      0.0319
@<TRIPOS>BOND
     1   119   116    1
     2   116   115    1
     3   116   117    1
     4    64    65    2
     5    64    63    1
     6    66    63    1
     7    66    67    1
     8    69    67   ar
     9    69    71   ar
    10   115   105   am
    11   102   101    1
    12    63    62    1
    13    67    68   ar
    14   117   118    2
    15    71    72   ar
    16   105   106    2
    17   105   104    1
    18   107   104    1
    19   107   108    1
    20   101    98    1
    21   103   104    1
    22   103    99   am
    23   110   108   ar
    24   110   112   ar
    25    68    70   ar
    26    72    70   ar
    27    72    73    1
    28    98    99    1
    29    98    97    1
    30   108   109   ar
    31    93    92    2
    32    99   100    2
    33   112   113   ar
    34    96    94    1
    35    92    97   am
    36    92    91    1
    37   109   111   ar
    38   113   111   ar
    39   113   114    1
    40    83    82    1
    41    94    91    1
    42    94    95    1
    43    91    90    1
    44    75    76    1
    45    75    74    1
    46    82    79    1
    47    76    77    2
    48    60    59    2
    49    78    79    1
    50    90    86   am
    51    56    57    2
    52    56    55    1
    53    58    59    1
    54    58    55    1
    55    79    80    1
    56    59    61   am
    57    81    80    2
    58    55    54    1
    59    80    84   am
    60    86    87    2
    61    86    85    1
    62    25    26    1
    63    84    85    1
    64    23    24    2
    65    23    22    1
    66    54    44   am
    67    22    21    1
    68    85    88    1
    69    45    44    2
    70    26    29    1
    71    26    27    1
    72    29    30    1
    73    89    88    1
    74    44    43    1
    75    21    12   am
    76    27    28    2
    77    27    31   am
    78    12    13    2
    79    12    11    1
    80    43    42    1
    81    43    46    1
    82    17    19   ar
    83    17    15   ar
    84    31    32    1
    85    19    20   ar
    86    14    11    1
    87    14    15    1
    88    46    47    1
    89    11    10    1
    90    15    16   ar
    91    37    35    1
    92    32    35    1
    93    32    33    1
    94     4     3    2
    95    20    18   ar
    96    36    35    1
    97    10     3   am
    98    47    49   ar
    99    47    48   ar
   100    16    18   ar
   101    33    38   am
   102    33    34    2
   103    38    39    1
   104     3     2    1
   105    49    51   ar
   106    40    39    1
   107    40    41    2
   108    48    50   ar
   109    51    52   ar
   110     2     5    1
   111     2     1    1
   112    50    52   ar
   113     5     6    1
   114    52    53    1
   115     9     8    1
   116     8     7    1
   117     7     6    1
