@<TRIPOS>MOLECULE
tmp/1i90A00.pdb
 185 180 0 0 0
SMALL
GASTEIGER

@<TRIPOS>ATOM
      1  N          7.8830   -0.1870   10.3170 N.3     3  TRP3       -0.1241
      2  CA         7.3110   -1.2980   11.0690 C.3     3  TRP3        0.1605
      3  C          6.3660   -2.1750   10.2610 C.2     3  TRP3        0.2264
      4  O          5.7700   -1.7440    9.2600 O.2     3  TRP3       -0.2867
      5  CB         6.5680   -0.7640   12.2900 C.3     3  TRP3        0.0550
      6  CG         5.3480    0.0280   11.9280 C.ar    3  TRP3        0.0003
      7  CD1        5.2990    1.3500   11.5630 C.ar    3  TRP3        0.0946
      8  CD2        3.9920   -0.4470   11.9070 C.ar    3  TRP3        0.0152
      9  NE1        3.9940    1.7240   11.3220 N.ar    3  TRP3       -0.2442
     10  CE2        3.1730    0.6410   11.5230 C.ar    3  TRP3        0.0810
     11  CE3        3.3890   -1.6810   12.1850 C.ar    3  TRP3        0.0012
     12  CZ2        1.7790    0.5250   11.4110 C.ar    3  TRP3        0.0191
     13  CZ3        2.0030   -1.7920   12.0730 C.ar    3  TRP3        0.0001
     14  CH2        1.2170   -0.6960   11.6910 C.ar    3  TRP3        0.0015
     15  N         -3.4110    0.3060    3.5370 N.3    60  ASN60      -0.1240
     16  CA        -2.2480    1.0960    3.9580 C.3    60  ASN60       0.1653
     17  C         -0.9920    0.2800    4.2590 C.2    60  ASN60       0.2266
     18  O         -0.0710    0.7720    4.9120 O.2    60  ASN60      -0.2867
     19  CB        -2.5900    1.9810    5.1630 C.3    60  ASN60       0.1155
     20  CG        -2.8590    1.1860    6.4410 C.2    60  ASN60       0.2627
     21  OD1       -2.5970   -0.0170    6.5400 O.2    60  ASN60      -0.2716
     22  ND2       -3.3770    1.8720    7.4300 N.am   60  ASN60      -0.0877
     23  N         -0.7560   -2.1450    6.2710 N.3    62  HIS62      -0.1241
     24  CA        -0.8430   -2.7540    7.6090 C.3    62  HIS62       0.1621
     25  C         -2.2190   -3.3910    7.8340 C.2    62  HIS62       0.2264
     26  O         -2.3480   -4.3760    8.5660 O.2    62  HIS62      -0.2867
     27  CB        -0.5330   -1.7120    8.6830 C.3    62  HIS62       0.0745
     28  CG         0.8130   -1.0810    8.5170 C.ar   62  HIS62       0.0817
     29  ND1        0.9820    0.2190    8.0910 N.ar   62  HIS62      -0.2268
     30  CD2        2.0570   -1.5900    8.6720 C.ar   62  HIS62       0.1154
     31  CE1        2.2730    0.4830    7.9920 C.ar   62  HIS62       0.1986
     32  NE2        2.9470   -0.5980    8.3400 N.ar   62  HIS62      -0.2212
     33  N         -8.3320    0.3260    5.7450 N.3    65  ASN65      -0.1240
     34  CA        -9.1080    1.2650    6.5450 C.3    65  ASN65       0.1653
     35  C        -10.2730    1.7830    5.7440 C.2    65  ASN65       0.2266
     36  O        -10.1200    2.0520    4.5590 O.2    65  ASN65      -0.2867
     37  CB        -8.2690    2.4960    6.9250 C.3    65  ASN65       0.1155
     38  CG        -7.1730    2.2020    7.9400 C.2    65  ASN65       0.2627
     39  OD1       -6.4610    3.1140    8.3570 O.2    65  ASN65      -0.2716
     40  ND2       -7.0300    0.9520    8.3430 N.am   65  ASN65      -0.0877
     41  N        -13.7770    8.2510   12.6630 N.3    89  ILE89      -0.1231
     42  CA       -12.9230    8.7030   11.5830 C.3    89  ILE89       0.1692
     43  C        -12.6100    7.5360   10.6430 C.2    89  ILE89       0.2591
     44  O        -12.5550    7.7000    9.4260 O.2    89  ILE89      -0.2718
     45  CB       -11.6430    9.3850   12.1150 C.3    89  ILE89       0.0266
     46  CG1      -10.7840    9.8660   10.9380 C.3    89  ILE89       0.0019
     47  CG2      -10.8740    8.4490   13.0350 C.3    89  ILE89       0.0020
     48  CD1       -9.6580   10.7570   11.3440 C.3    89  ILE89       0.0001
     49  N        -12.4690    6.3390   11.1930 N.am   90  GLN90      -0.1979
     50  CA       -12.1870    5.1820   10.3640 C.3    90  GLN90       0.1601
     51  C        -12.3750    3.8860   11.1330 C.2    90  GLN90       0.2287
     52  O        -12.5370    3.9010   12.3520 O.2    90  GLN90      -0.2864
     53  CB       -10.7480    5.2570    9.8470 C.3    90  GLN90       0.0394
     54  CG        -9.6820    5.3150   10.9370 C.3    90  GLN90       0.0908
     55  CD        -8.8590    4.0550   11.0090 C.2    90  GLN90       0.2608
     56  OE1       -9.3890    2.9630   11.1400 O.2    90  GLN90      -0.2717
     57  NE2       -7.5490    4.2010   10.9110 N.am   90  GLN90      -0.0878
     58  N        -11.0240   -0.4470   10.9320 N.3    92  HIS92      -0.1241
     59  CA       -10.1500   -1.4120   10.2920 C.3    92  HIS92       0.1621
     60  C        -10.2850   -2.6810   11.0760 C.2    92  HIS92       0.2264
     61  O        -10.9880   -2.7240   12.0860 O.2    92  HIS92      -0.2867
     62  CB        -8.6870   -0.9470   10.3020 C.3    92  HIS92       0.0745
     63  CG        -8.1840   -0.5700   11.6590 C.ar   92  HIS92       0.0817
     64  ND1       -8.3820    0.6640   12.2390 N.ar   92  HIS92      -0.2268
     65  CD2       -7.5010   -1.3000   12.5740 C.ar   92  HIS92       0.1154
     66  CE1       -7.8270    0.6470   13.4570 C.ar   92  HIS92       0.1986
     67  NE2       -7.2790   -0.5260   13.7090 N.ar   92  HIS92      -0.2212
     68  N         -8.0820   -6.5210   12.2510 N.3    94  HIS94      -0.1241
     69  CA        -6.8280   -7.2140   12.4970 C.3    94  HIS94       0.1621
     70  C         -7.3020   -8.6440   12.3720 C.2    94  HIS94       0.2264
     71  O         -8.4040   -8.9710   12.8310 O.2    94  HIS94      -0.2867
     72  CB        -6.3110   -6.9630   13.9110 C.3    94  HIS94       0.0745
     73  CG        -5.9610   -5.5350   14.1680 C.ar   94  HIS94       0.0817
     74  ND1       -4.6860   -5.0230   14.0920 N.ar   94  HIS94      -0.2268
     75  CD2       -6.7590   -4.4850   14.4770 C.ar   94  HIS94       0.1154
     76  CE1       -4.7650   -3.7220   14.3570 C.ar   94  HIS94       0.1986
     77  NE2       -6.0130   -3.3650   14.5940 N.ar   94  HIS94      -0.2212
     78  N        -11.8840   -2.5420   14.6780 N.3   117  HIS117     -0.1241
     79  CA       -11.6330   -1.3540   15.4710 C.3   117  HIS117      0.1621
     80  C        -12.2790   -0.1610   14.8090 C.2   117  HIS117      0.2264
     81  O        -11.9650    0.1680   13.6490 O.2   117  HIS117     -0.2867
     82  CB       -10.1300   -1.0860   15.5970 C.3   117  HIS117      0.0745
     83  CG        -9.4050   -2.0720   16.4610 C.ar  117  HIS117      0.0817
     84  ND1       -8.0500   -2.2410   16.3720 N.ar  117  HIS117     -0.2268
     85  CD2       -9.8940   -2.8930   17.4210 C.ar  117  HIS117      0.1154
     86  CE1       -7.7440   -3.1540   17.2720 C.ar  117  HIS117      0.1986
     87  NE2       -8.8220   -3.5720   17.9300 N.ar  117  HIS117     -0.2212
     88  N        -12.4260    3.6080   15.1460 N.3   119  VAL119     -0.1245
     89  CA       -11.6580    4.6850   15.7320 C.3   119  VAL119      0.1561
     90  C        -12.4090    5.9900   15.7490 C.2   119  VAL119      0.2260
     91  O        -12.9280    6.4240   14.7240 O.2   119  VAL119     -0.2867
     92  CB       -10.3160    4.8570   14.9730 C.3   119  VAL119      0.0252
     93  CG1       -9.4000    5.8490   15.6830 C.3   119  VAL119      0.0019
     94  CG2       -9.6330    3.5160   14.8280 C.3   119  VAL119      0.0019
     95  N         -8.3930   15.6910   14.7770 N.3   128  PHE128     -0.1241
     96  CA        -7.7500   14.4210   15.0660 C.3   128  PHE128      0.1605
     97  C         -6.3020   14.5810   15.5220 C.2   128  PHE128      0.2264
     98  O         -5.8660   13.9190   16.4610 O.2   128  PHE128     -0.2867
     99  CB        -7.8290   13.5080   13.8360 C.3   128  PHE128      0.0534
    100  CG        -7.1930   12.1800   14.0420 C.ar  128  PHE128     -0.0203
    101  CD1       -7.8850   11.1600   14.6690 C.ar  128  PHE128     -0.0042
    102  CD2       -5.8780   11.9620   13.6620 C.ar  128  PHE128     -0.0042
    103  CE1       -7.2770    9.9400   14.9230 C.ar  128  PHE128     -0.0003
    104  CE2       -5.2600   10.7430   13.9120 C.ar  128  PHE128     -0.0003
    105  CZ        -5.9600    9.7330   14.5440 C.ar  128  PHE128     -0.0000
    106  N         -4.7530   13.1460   19.3310 N.3   132  VAL132     -0.1245
    107  CA        -3.6900   12.1820   19.5930 C.3   132  VAL132      0.1561
    108  C         -2.5680   12.6920   20.4940 C.2   132  VAL132      0.2260
    109  O         -1.6340   11.9640   20.7930 O.2   132  VAL132     -0.2867
    110  CB        -3.0890   11.5820   18.3040 C.3   132  VAL132      0.0252
    111  CG1       -4.1250   10.7450   17.6050 C.3   132  VAL132      0.0019
    112  CG2       -2.5480   12.6720   17.3880 C.3   132  VAL132      0.0019
    113  N         -8.6790    9.6060   22.0370 N.3   138  LEU138     -0.1245
    114  CA        -9.3200    8.5900   21.2050 C.3   138  LEU138      0.1561
    115  C        -10.1690    7.6070   21.9760 C.2   138  LEU138      0.2260
    116  O         -9.9230    7.3350   23.1470 O.2   138  LEU138     -0.2867
    117  CB        -8.2540    7.7720   20.4660 C.3   138  LEU138      0.0270
    118  CG        -7.2410    8.5710   19.6360 C.3   138  LEU138      0.0019
    119  CD1       -6.1670    7.6610   19.0690 C.3   138  LEU138      0.0001
    120  CD2       -7.9610    9.3250   18.5390 C.3   138  LEU138      0.0001
    121  N        -11.6980    3.8060   20.9150 N.3   140  VAL140     -0.1245
    122  CA       -11.7810    2.8100   19.8760 C.3   140  VAL140      0.1561
    123  C        -12.7210    1.7360   20.3500 C.2   140  VAL140      0.2260
    124  O        -12.5810    1.2210   21.4580 O.2   140  VAL140     -0.2867
    125  CB       -10.3980    2.1800   19.5530 C.3   140  VAL140      0.0252
    126  CG1      -10.5390    1.1490   18.4360 C.3   140  VAL140      0.0019
    127  CG2       -9.4170    3.2520   19.1780 C.3   140  VAL140      0.0019
    128  N         -2.8570    2.9090   21.0550 N.3   195  LEU195     -0.1231
    129  CA        -3.0430    2.4050   19.6950 C.3   195  LEU195      0.1693
    130  C         -2.2930    1.0830   19.7640 C.2   195  LEU195      0.2593
    131  O         -1.3140    0.9790   20.5000 O.2   195  LEU195     -0.2718
    132  CB        -2.3180    3.3030   18.6910 C.3   195  LEU195      0.0284
    133  CG        -2.6640    4.7850   18.7060 C.3   195  LEU195      0.0019
    134  CD1       -1.7450    5.5180   17.7360 C.3   195  LEU195      0.0001
    135  CD2       -4.1130    4.9760   18.3270 C.3   195  LEU195      0.0001
    136  N         -2.7360    0.0720   19.0290 N.am  196  THR196     -0.1939
    137  CA        -2.0520   -1.2100   19.0550 C.3   196  THR196      0.2028
    138  C         -0.9760   -1.2650   17.9880 C.2   196  THR196      0.2643
    139  O         -0.3270   -2.3020   17.7850 O.2   196  THR196     -0.2714
    140  CB        -3.0350   -2.3610   18.8590 C.3   196  THR196      0.1808
    141  OG1       -3.7160   -2.1900   17.6150 O.3   196  THR196     -0.2208
    142  CG2       -4.0590   -2.3740   19.9820 C.3   196  THR196      0.0379
    143  N         -0.8340   -0.1640   17.2580 N.am  197  THR197     -0.1937
    144  CA         0.1740   -0.0750   16.2220 C.3   197  THR197      0.2013
    145  C          0.9380    1.2110   16.4530 C.2   197  THR197      0.2484
    146  O          0.4730    2.1040   17.1710 O.2   197  THR197     -0.2729
    147  CB        -0.4410    0.0100   14.7980 C.3   197  THR197      0.1807
    148  OG1       -1.0170    1.3050   14.6000 O.3   197  THR197     -0.2208
    149  CG2       -1.5070   -1.0580   14.5860 C.3   197  THR197      0.0379
    150  N          2.1830    1.2720   15.9640 N.am  198  PRO198     -0.2715
    151  CA         2.9700    2.4920   16.1260 C.3   198  PRO198      0.1521
    152  C          2.0900    3.6140   15.5740 C.2   198  PRO198      0.2440
    153  O          1.3090    3.3870   14.6540 O.2   198  PRO198     -0.2731
    154  CB         4.1570    2.2240   15.2120 C.3   198  PRO198      0.0310
    155  CG         4.4070    0.7860   15.4750 C.3   198  PRO198      0.0237
    156  CD         3.0160    0.1780   15.4410 C.3   198  PRO198      0.0939
    157  N          2.2460    4.8410   16.0630 N.am  199  PRO199     -0.2727
    158  CA         3.1860    5.2820   17.0950 C.3   199  PRO199      0.1402
    159  C          2.8630    4.8190   18.5270 C.2   199  PRO199      0.2269
    160  O          3.4970    5.2760   19.4770 O.2   199  PRO199     -0.2865
    161  CB         3.1650    6.8040   16.9330 C.3   199  PRO199      0.0296
    162  CG         1.7630    7.0770   16.4970 C.3   199  PRO199      0.0237
    163  CD         1.4720    5.9710   15.5240 C.3   199  PRO199      0.0939
    164  N          0.6140    5.5450   20.5590 N.3   201  LEU201     -0.1245
    165  CA         0.2490    6.6610   21.4260 C.3   201  LEU201      0.1561
    166  C         -0.7020    6.2170   22.5230 C.2   201  LEU201      0.2260
    167  O         -1.6400    5.4500   22.2910 O.2   201  LEU201     -0.2867
    168  CB        -0.3580    7.8050   20.6060 C.3   201  LEU201      0.0270
    169  CG         0.6570    8.4380   19.6530 C.3   201  LEU201      0.0019
    170  CD1        0.0030    9.5170   18.8150 C.3   201  LEU201      0.0001
    171  CD2        1.7980    9.0220   20.4570 C.3   201  LEU201      0.0001
    172  N        -10.3190    2.2600   25.5740 N.3   206  TRP206     -0.1241
    173  CA       -10.7750    1.1110   24.8290 C.3   206  TRP206      0.1605
    174  C        -12.1310    0.6480   25.2910 C.2   206  TRP206      0.2264
    175  O        -12.3880    0.5590   26.4910 O.2   206  TRP206     -0.2867
    176  CB        -9.7860   -0.0370   24.9620 C.3   206  TRP206      0.0550
    177  CG        -8.6800    0.0660   24.0040 C.ar  206  TRP206      0.0003
    178  CD1       -7.4450    0.6050   24.2240 C.ar  206  TRP206      0.0946
    179  CD2       -8.6980   -0.3650   22.6360 C.ar  206  TRP206      0.0152
    180  NE1       -6.6970    0.5370   23.0780 N.ar  206  TRP206     -0.2442
    181  CE2       -7.4380   -0.0570   22.0890 C.ar  206  TRP206      0.0810
    182  CE3       -9.6600   -0.9870   21.8260 C.ar  206  TRP206      0.0012
    183  CZ2       -7.1050   -0.3510   20.7640 C.ar  206  TRP206      0.0191
    184  CZ3       -9.3310   -1.2820   20.5050 C.ar  206  TRP206      0.0001
    185  CH2       -8.0650   -0.9640   19.9900 C.ar  206  TRP206      0.0015
@<TRIPOS>BOND
     1    15    16    1
     2    16    17    1
     3    16    19    1
     4    17    18    2
     5    36    35    2
     6    19    20    1
     7    35    34    1
     8    33    34    1
     9    23    24    1
    10    20    21    2
    11    20    22   am
    12    34    37    1
    13    37    38    1
    14    24    25    1
    15    24    27    1
    16    25    26    2
    17    38    40   am
    18    38    39    2
    19    31    29   ar
    20    31    32   ar
    21    29    28   ar
    22    32    30   ar
    23    28    30   ar
    24    28    27    1
    25     4     3    2
    26    44    43    2
    27    53    50    1
    28    53    54    1
    29     3     2    1
    30    59    62    1
    31    59    58    1
    32    59    60    1
    33    62    63    1
    34     1     2    1
    35    50    51    1
    36    50    49    1
    37    43    49   am
    38    43    42    1
    39    57    55   am
    40    54    55    1
    41    46    48    1
    42    46    45    1
    43    55    56    2
    44     2     5    1
    45    60    61    2
    46    51    52    2
    47     9    10   ar
    48     9     7   ar
    49    12    10   ar
    50    12    14   ar
    51    10     8   ar
    52     7     6   ar
    53    42    45    1
    54    42    41    1
    55    63    64   ar
    56    63    65   ar
    57    14    13   ar
    58     8     6   ar
    59     8    11   ar
    60     6     5    1
    61    13    11   ar
    62    45    47    1
    63    64    66   ar
    64    68    69    1
    65    70    69    1
    66    70    71    2
    67    69    72    1
    68    65    67   ar
    69    66    67   ar
    70    81    80    2
    71   102   104   ar
    72   102   100   ar
    73    99   100    1
    74    99    96    1
    75    72    73    1
    76   104   105   ar
    77   100   101   ar
    78    74    73   ar
    79    74    76   ar
    80    73    75   ar
    81    76    77   ar
    82    75    77   ar
    83   105   103   ar
    84   149   147    1
    85   148   147    1
    86   153   152    2
    87   101   103   ar
    88    78    79    1
    89    91    90    2
    90    95    96    1
    91   147   144    1
    92    80    79    1
    93    94    92    1
    94    92    93    1
    95    92    89    1
    96    96    97    1
    97    88    89    1
    98   154   155    1
    99   154   151    1
   100   156   155    1
   101   156   150    1
   102    79    82    1
   103    97    98    2
   104   163   157    1
   105   163   162    1
   106   152   157   am
   107   152   151    1
   108    82    83    1
   109    89    90    1
   110   150   151    1
   111   150   145   am
   112   157   158    1
   113   144   145    1
   114   144   143    1
   115    84    83   ar
   116    84    86   ar
   117   145   146    2
   118    83    85   ar
   119   162   161    1
   120   161   158    1
   121   158   159    1
   122   143   138   am
   123    86    87   ar
   124   112   110    1
   125    85    87   ar
   126   111   110    1
   127   141   140    1
   128   134   133    1
   129   139   138    2
   130   138   137    1
   131   110   107    1
   132   135   133    1
   133   126   125    1
   134   159   160    2
   135   120   118    1
   136   132   133    1
   137   132   129    1
   138   170   169    1
   139   140   137    1
   140   140   142    1
   141   136   137    1
   142   136   130   am
   143   119   118    1
   144   127   125    1
   145   106   107    1
   146   125   122    1
   147   107   108    1
   148   118   117    1
   149   169   171    1
   150   169   168    1
   151   129   130    1
   152   129   128    1
   153   130   131    2
   154   122   123    1
   155   122   121    1
   156   185   184   ar
   157   185   183   ar
   158   123   124    2
   159   117   114    1
   160   108   109    2
   161   184   182   ar
   162   164   165    1
   163   168   165    1
   164   183   181   ar
   165   114   115    1
   166   114   113    1
   167   165   166    1
   168   182   179   ar
   169   115   116    2
   170   181   179   ar
   171   181   180   ar
   172   167   166    2
   173   179   177   ar
   174   180   178   ar
   175   177   178   ar
   176   177   176    1
   177   173   176    1
   178   173   174    1
   179   173   172    1
   180   174   175    2
