@<TRIPOS>MOLECULE
tmp/1i91A00.pdb
 178 170 0 0 0
SMALL
GASTEIGER

@<TRIPOS>ATOM
      1  N         -9.0980    1.4600    1.8490 N.3    58  LEU58      -0.1245
      2  CA        -7.7080    1.4050    1.3710 C.3    58  LEU58       0.1561
      3  C         -6.8860    0.3720    2.1020 C.2    58  LEU58       0.2260
      4  O         -7.1310    0.0620    3.2750 O.2    58  LEU58      -0.2867
      5  CB        -6.9870    2.7510    1.5190 C.3    58  LEU58       0.0270
      6  CG        -6.5190    3.1570    2.9250 C.3    58  LEU58       0.0019
      7  CD1       -5.4210    4.2230    2.8510 C.3    58  LEU58       0.0001
      8  CD2       -7.7180    3.6180    3.7700 C.3    58  LEU58       0.0001
      9  N         -3.3730   -0.3150    3.5450 N.3    60  ASN60      -0.1240
     10  CA        -2.2130    0.4680    3.9810 C.3    60  ASN60       0.1653
     11  C         -0.9820   -0.3770    4.3160 C.2    60  ASN60       0.2266
     12  O         -0.0290    0.1040    4.9190 O.2    60  ASN60      -0.2867
     13  CB        -2.5960    1.3890    5.1510 C.3    60  ASN60       0.1155
     14  CG        -2.8170    0.6420    6.4830 C.2    60  ASN60       0.2627
     15  OD1       -2.6180   -0.5810    6.6120 O.2    60  ASN60      -0.2716
     16  ND2       -3.1950    1.4110    7.5010 N.am   60  ASN60      -0.0877
     17  N         -8.6710   -0.3080    5.8050 N.3    65  ASN65      -0.1240
     18  CA        -9.4780    0.6620    6.5500 C.3    65  ASN65       0.1653
     19  C        -10.6110    1.3090    5.7530 C.2    65  ASN65       0.2266
     20  O        -10.4250    1.7000    4.6020 O.2    65  ASN65      -0.2867
     21  CB        -8.5910    1.8120    7.0670 C.3    65  ASN65       0.1155
     22  CG        -7.5480    1.3610    8.0800 C.2    65  ASN65       0.2627
     23  OD1       -7.3260    0.1750    8.2950 O.2    65  ASN65      -0.2716
     24  ND2       -6.8940    2.3300    8.7050 N.am   65  ASN65      -0.0877
     25  N        -12.8060    4.5810    5.7680 N.3    67  GLU67      -0.1245
     26  CA       -12.7640    5.9060    6.3820 C.3    67  GLU67       0.1567
     27  C        -14.0900    6.6270    6.2830 C.2    67  GLU67       0.2260
     28  O        -14.8230    6.4220    5.3120 O.2    67  GLU67      -0.2867
     29  CB       -11.6480    6.7340    5.7510 C.3    67  GLU67       0.0388
     30  CG       -10.2730    6.2200    6.1210 C.3    67  GLU67       0.1160
     31  CD        -9.1500    6.7900    5.2700 C.2    67  GLU67       0.3649
     32  OE1       -9.4500    7.4320    4.2480 O.co2  67  GLU67      -0.2457
     33  OE2       -7.9630    6.5850    5.6290 O.co2  67  GLU67      -0.2457
     34  N        -14.1980    7.8020   13.0870 N.3    89  ILE89      -0.1231
     35  CA       -13.2860    8.2170   12.0290 C.3    89  ILE89       0.1692
     36  C        -12.9370    7.0890   11.0410 C.2    89  ILE89       0.2591
     37  O        -12.8060    7.3220    9.8290 O.2    89  ILE89      -0.2718
     38  CB       -12.0070    8.8900   12.5980 C.3    89  ILE89       0.0266
     39  CG1      -11.0940    9.3250   11.4490 C.3    89  ILE89       0.0019
     40  CG2      -11.2730    7.9690   13.5920 C.3    89  ILE89       0.0020
     41  CD1      -10.1840   10.5120   11.8070 C.3    89  ILE89       0.0001
     42  N        -12.8160    5.8690   11.5560 N.am   90  GLN90      -0.1979
     43  CA       -12.5000    4.7070   10.7300 C.3    90  GLN90       0.1601
     44  C        -12.6370    3.4040   11.5140 C.2    90  GLN90       0.2287
     45  O        -12.7810    3.4300   12.7290 O.2    90  GLN90      -0.2864
     46  CB       -11.0820    4.8200   10.1340 C.3    90  GLN90       0.0394
     47  CG        -9.9130    4.8390   11.1190 C.3    90  GLN90       0.0908
     48  CD        -9.2060    3.4880   11.2580 C.2    90  GLN90       0.2608
     49  OE1       -9.8410    2.4510   11.4290 O.2    90  GLN90      -0.2717
     50  NE2       -7.8860    3.5030   11.1980 N.am   90  GLN90      -0.0878
     51  N        -11.3240   -0.9290   11.2530 N.3    92  HIS92      -0.1241
     52  CA       -10.4090   -1.8690   10.6120 C.3    92  HIS92       0.1621
     53  C        -10.5020   -3.1640   11.3820 C.2    92  HIS92       0.2264
     54  O        -11.1280   -3.2270   12.4440 O.2    92  HIS92      -0.2867
     55  CB        -8.9660   -1.3560   10.6660 C.3    92  HIS92       0.0745
     56  CG        -8.4690   -1.1090   12.0580 C.ar   92  HIS92       0.0817
     57  ND1       -8.6080    0.0870   12.7250 N.ar   92  HIS92      -0.2268
     58  CD2       -7.8440   -1.9420   12.9280 C.ar   92  HIS92       0.1154
     59  CE1       -8.0790   -0.0520   13.9510 C.ar   92  HIS92       0.1986
     60  NE2       -7.6000   -1.2670   14.1320 N.ar   92  HIS92      -0.2212
     61  N         -8.3220   -7.0010   12.5860 N.3    94  HIS94      -0.1241
     62  CA        -7.0840   -7.6950   12.8900 C.3    94  HIS94       0.1621
     63  C         -7.5500   -9.1510   12.7010 C.2    94  HIS94       0.2264
     64  O         -8.6740   -9.4900   13.0850 O.2    94  HIS94      -0.2867
     65  CB        -6.6560   -7.4240   14.3440 C.3    94  HIS94       0.0745
     66  CG        -6.3190   -5.9880   14.6150 C.ar   94  HIS94       0.0817
     67  ND1       -5.0910   -5.4180   14.3750 N.ar   94  HIS94      -0.2268
     68  CD2       -7.0900   -4.9880   15.1060 C.ar   94  HIS94       0.1154
     69  CE1       -5.1590   -4.1250   14.7270 C.ar   94  HIS94       0.1986
     70  NE2       -6.3550   -3.8020   15.1820 N.ar   94  HIS94      -0.2212
     71  N        -12.2290   -3.0140   15.1430 N.3   117  HIS117     -0.1241
     72  CA       -12.0080   -1.7930   15.9180 C.3   117  HIS117      0.1621
     73  C        -12.6600   -0.6150   15.2370 C.2   117  HIS117      0.2264
     74  O        -12.2760   -0.2660   14.1130 O.2   117  HIS117     -0.2867
     75  CB       -10.5200   -1.4710   16.0640 C.3   117  HIS117      0.0745
     76  CG        -9.7630   -2.4800   16.8560 C.ar  117  HIS117      0.0817
     77  ND1       -8.4040   -2.6270   16.7270 N.ar  117  HIS117     -0.2268
     78  CD2      -10.2430   -3.4160   17.7150 C.ar  117  HIS117      0.1154
     79  CE1       -8.0950   -3.6410   17.5060 C.ar  117  HIS117      0.1986
     80  NE2       -9.1800   -4.1490   18.1180 N.ar  117  HIS117     -0.2212
     81  N        -12.8880    3.0730   15.5900 N.3   119  VAL119     -0.1245
     82  CA       -12.1380    4.1670   16.2000 C.3   119  VAL119      0.1561
     83  C        -12.8470    5.5160   16.2170 C.2   119  VAL119      0.2260
     84  O        -13.2570    6.0130   15.1570 O.2   119  VAL119     -0.2867
     85  CB       -10.7760    4.3260   15.4680 C.3   119  VAL119      0.0252
     86  CG1       -9.8320    5.1790   16.2760 C.3   119  VAL119      0.0019
     87  CG2      -10.1730    2.9560   15.1650 C.3   119  VAL119      0.0019
     88  N         -8.6960   15.2220   15.1150 N.3   128  PHE128     -0.1241
     89  CA        -8.0430   13.9820   15.4670 C.3   128  PHE128      0.1605
     90  C         -6.6290   14.1590   15.9880 C.2   128  PHE128      0.2264
     91  O         -6.2830   13.6030   17.0250 O.2   128  PHE128     -0.2867
     92  CB        -8.0800   13.0100   14.2840 C.3   128  PHE128      0.0534
     93  CG        -7.4640   11.6780   14.5820 C.ar  128  PHE128     -0.0203
     94  CD1       -8.2310   10.6470   15.0850 C.ar  128  PHE128     -0.0042
     95  CD2       -6.1100   11.4570   14.3680 C.ar  128  PHE128     -0.0042
     96  CE1       -7.6680    9.4330   15.3660 C.ar  128  PHE128     -0.0003
     97  CE2       -5.5440   10.2390   14.6510 C.ar  128  PHE128     -0.0003
     98  CZ        -6.3290    9.2290   15.1520 C.ar  128  PHE128     -0.0000
     99  N         -5.1970   12.8320   19.7890 N.3   132  VAL132     -0.1245
    100  CA        -4.1310   11.8540   20.0550 C.3   132  VAL132      0.1561
    101  C         -3.0990   12.3700   21.0600 C.2   132  VAL132      0.2260
    102  O         -2.2030   11.6410   21.4610 O.2   132  VAL132     -0.2867
    103  CB        -3.4070   11.2620   18.7650 C.3   132  VAL132      0.0252
    104  CG1       -4.3320   10.3060   18.0330 C.3   132  VAL132      0.0019
    105  CG2       -2.9180   12.3560   17.8130 C.3   132  VAL132      0.0019
    106  N         -9.0410    9.1080   22.6640 N.3   138  LEU138     -0.1245
    107  CA        -9.6910    8.1090   21.8330 C.3   138  LEU138      0.1561
    108  C        -10.6240    7.1390   22.5440 C.2   138  LEU138      0.2260
    109  O        -10.4740    6.8560   23.7200 O.2   138  LEU138     -0.2867
    110  CB        -8.6230    7.2760   21.1270 C.3   138  LEU138      0.0270
    111  CG        -7.7990    7.9710   20.0420 C.3   138  LEU138      0.0019
    112  CD1       -6.8160    7.0150   19.3960 C.3   138  LEU138      0.0001
    113  CD2       -8.7320    8.5300   18.9940 C.3   138  LEU138      0.0001
    114  N        -12.1220    3.4140   21.3920 N.3   140  VAL140     -0.1245
    115  CA       -12.1750    2.3800   20.3660 C.3   140  VAL140      0.1561
    116  C        -13.1170    1.2880   20.8250 C.2   140  VAL140      0.2260
    117  O        -12.9310    0.6910   21.8850 O.2   140  VAL140     -0.2867
    118  CB       -10.7820    1.7560   20.0430 C.3   140  VAL140      0.0252
    119  CG1      -10.9200    0.7150   18.9440 C.3   140  VAL140      0.0019
    120  CG2       -9.7890    2.8460   19.6450 C.3   140  VAL140      0.0019
    121  N         -3.1780    2.4510   21.6520 N.3   195  LEU195     -0.1231
    122  CA        -3.3520    1.9810   20.2760 C.3   195  LEU195      0.1693
    123  C         -2.5850    0.6550   20.2880 C.2   195  LEU195      0.2593
    124  O         -1.6520    0.4960   21.0930 O.2   195  LEU195     -0.2718
    125  CB        -2.6630    2.9330   19.2960 C.3   195  LEU195      0.0284
    126  CG        -3.1930    4.3510   19.2110 C.3   195  LEU195      0.0019
    127  CD1       -2.2790    5.1350   18.3230 C.3   195  LEU195      0.0001
    128  CD2       -4.6080    4.3350   18.6410 C.3   195  LEU195      0.0001
    129  N         -2.9730   -0.2980   19.4430 N.am  196  THR196     -0.1939
    130  CA        -2.2730   -1.5820   19.3920 C.3   196  THR196      0.2028
    131  C         -1.2130   -1.6850   18.2850 C.2   196  THR196      0.2643
    132  O         -0.6970   -2.7750   18.0170 O.2   196  THR196     -0.2714
    133  CB        -3.2380   -2.7550   19.2500 C.3   196  THR196      0.1808
    134  OG1       -3.9040   -2.6650   17.9830 O.3   196  THR196     -0.2208
    135  CG2       -4.2460   -2.7580   20.3920 C.3   196  THR196      0.0379
    136  N         -0.9570   -0.5750   17.5950 N.am  197  THR197     -0.1937
    137  CA         0.0660   -0.5290   16.5550 C.3   197  THR197      0.2013
    138  C          0.8540    0.7910   16.7450 C.2   197  THR197      0.2484
    139  O          0.3760    1.7270   17.4250 O.2   197  THR197     -0.2729
    140  CB        -0.5440   -0.5920   15.0960 C.3   197  THR197      0.1807
    141  OG1       -1.1690    0.6440   14.7750 O.3   197  THR197     -0.2208
    142  CG2       -1.5870   -1.6700   14.9680 C.3   197  THR197      0.0379
    143  N          2.1000    0.8650   16.2090 N.am  198  PRO198     -0.2715
    144  CA         2.8520    2.1080   16.3660 C.3   198  PRO198      0.1521
    145  C          1.9310    3.2450   15.9030 C.2   198  PRO198      0.2440
    146  O          1.1320    3.0600   14.9780 O.2   198  PRO198     -0.2731
    147  CB         4.0210    1.9110   15.3990 C.3   198  PRO198      0.0310
    148  CG         4.2570    0.4620   15.4520 C.3   198  PRO198      0.0237
    149  CD         2.8600   -0.0980   15.3950 C.3   198  PRO198      0.0939
    150  N          2.0430    4.4380   16.5120 N.am  199  PRO199     -0.2727
    151  CA         2.9220    4.9070   17.5890 C.3   199  PRO199      0.1402
    152  C          2.6680    4.3720   19.0240 C.2   199  PRO199      0.2269
    153  O          3.3830    4.7700   19.9630 O.2   199  PRO199     -0.2865
    154  CB         2.7370    6.4300   17.5320 C.3   199  PRO199      0.0296
    155  CG         2.1650    6.6880   16.1760 C.3   199  PRO199      0.0237
    156  CD         1.2380    5.5540   15.9950 C.3   199  PRO199      0.0939
    157  N          0.3450    5.0040   21.1630 N.3   201  LEU201     -0.1245
    158  CA        -0.0370    6.1010   22.0560 C.3   201  LEU201      0.1561
    159  C         -1.0620    5.7000   23.1350 C.2   201  LEU201      0.2260
    160  O         -2.0600    5.0330   22.8410 O.2   201  LEU201     -0.2867
    161  CB        -0.5560    7.2650   21.2020 C.3   201  LEU201      0.0270
    162  CG         0.4850    7.7710   20.1910 C.3   201  LEU201      0.0019
    163  CD1       -0.0960    8.8540   19.3190 C.3   201  LEU201      0.0001
    164  CD2        1.7060    8.3170   20.9280 C.3   201  LEU201      0.0001
    165  N        -10.8420    1.8520   26.1630 N.3   206  TRP206     -0.1241
    166  CA       -11.3080    0.6710   25.4810 C.3   206  TRP206      0.1605
    167  C        -12.6460    0.1750   26.0110 C.2   206  TRP206      0.2264
    168  O        -12.8310    0.0030   27.2250 O.2   206  TRP206     -0.2867
    169  CB       -10.2560   -0.4330   25.5940 C.3   206  TRP206      0.0550
    170  CG        -9.1380   -0.2880   24.6310 C.ar  206  TRP206      0.0003
    171  CD1       -7.9060    0.2560   24.8670 C.ar  206  TRP206      0.0946
    172  CD2       -9.1160   -0.7580   23.2720 C.ar  206  TRP206      0.0152
    173  NE1       -7.1160    0.1400   23.7480 N.ar  206  TRP206     -0.2442
    174  CE2       -7.8340   -0.4770   22.7540 C.ar  206  TRP206      0.0810
    175  CE3      -10.0560   -1.3950   22.4470 C.ar  206  TRP206      0.0012
    176  CZ2       -7.4680   -0.8120   21.4460 C.ar  206  TRP206      0.0191
    177  CZ3       -9.6910   -1.7280   21.1470 C.ar  206  TRP206      0.0001
    178  CH2       -8.4100   -1.4360   20.6610 C.ar  206  TRP206      0.0015
@<TRIPOS>BOND
     1     2     5    1
     2     2     1    1
     3     2     3    1
     4     5     6    1
     5     3     4    2
     6     7     6    1
     7     6     8    1
     8     9    10    1
     9    10    11    1
    10    10    13    1
    11    32    31   ar
    12    11    12    2
    13    20    19    2
    14    13    14    1
    15    31    33   ar
    16    31    30    1
    17    28    27    2
    18    29    30    1
    19    29    26    1
    20    19    18    1
    21    25    26    1
    22    17    18    1
    23    27    26    1
    24    14    15    2
    25    14    16   am
    26    18    21    1
    27    21    22    1
    28    22    23    2
    29    22    24   am
    30    37    36    2
    31    46    43    1
    32    46    47    1
    33    52    55    1
    34    52    51    1
    35    52    53    1
    36    55    56    1
    37    43    44    1
    38    43    42    1
    39    36    42   am
    40    36    35    1
    41    47    48    1
    42    50    48   am
    43    48    49    2
    44    53    54    2
    45    39    41    1
    46    39    38    1
    47    44    45    2
    48    35    38    1
    49    35    34    1
    50    56    57   ar
    51    56    58   ar
    52    61    62    1
    53    38    40    1
    54    63    62    1
    55    63    64    2
    56    57    59   ar
    57    62    65    1
    58    58    60   ar
    59    59    60   ar
    60    74    73    2
    61    92    93    1
    62    92    89    1
    63    65    66    1
    64    95    93   ar
    65    95    97   ar
    66    67    66   ar
    67    67    69   ar
    68    93    94   ar
    69    66    68   ar
    70    97    98   ar
    71    69    70   ar
    72   141   140    1
    73   142   140    1
    74   146   145    2
    75    94    96   ar
    76   140   137    1
    77    68    70   ar
    78    88    89    1
    79    71    72    1
    80    98    96   ar
    81    84    83    2
    82    87    85    1
    83    73    72    1
    84   149   148    1
    85   149   143    1
    86   147   148    1
    87   147   144    1
    88    89    90    1
    89    85    82    1
    90    85    86    1
    91    81    82    1
    92   145   144    1
    93   145   150   am
    94    72    75    1
    95    90    91    2
    96   156   155    1
    97   156   150    1
    98    75    76    1
    99   155   154    1
   100    82    83    1
   101   143   144    1
   102   143   138   am
   103   150   151    1
   104   137   138    1
   105   137   136    1
   106    77    76   ar
   107    77    79   ar
   108   138   139    2
   109    76    78   ar
   110    79    80   ar
   111   154   151    1
   112   151   152    1
   113   136   131   am
   114    78    80   ar
   115   105   103    1
   116   134   133    1
   117   132   131    2
   118   104   103    1
   119   131   130    1
   120   127   126    1
   121   128   126    1
   122   103   100    1
   123   119   118    1
   124   113   111    1
   125   152   153    2
   126   126   125    1
   127   133   130    1
   128   133   135    1
   129   125   122    1
   130   163   162    1
   131   130   129    1
   132   112   111    1
   133   129   123   am
   134   120   118    1
   135    99   100    1
   136   111   110    1
   137   118   115    1
   138   100   101    1
   139   162   164    1
   140   162   161    1
   141   122   123    1
   142   122   121    1
   143   123   124    2
   144   115   116    1
   145   115   114    1
   146   178   177   ar
   147   178   176   ar
   148   116   117    2
   149   101   102    2
   150   110   107    1
   151   177   175   ar
   152   157   158    1
   153   161   158    1
   154   176   174   ar
   155   107   108    1
   156   107   106    1
   157   158   159    1
   158   175   172   ar
   159   108   109    2
   160   174   172   ar
   161   174   173   ar
   162   160   159    2
   163   172   170   ar
   164   173   171   ar
   165   170   171   ar
   166   170   169    1
   167   166   169    1
   168   166   167    1
   169   166   165    1
   170   167   168    2
