@<TRIPOS>MOLECULE
tmp/1i9cD01.pdb
 118 110 0 0 0
SMALL
GASTEIGER

@<TRIPOS>ATOM
      1  N          6.0440   30.7300   74.5560 N.3    66  ARG66      -0.1231
      2  CA         6.5190   32.0570   74.9000 C.3    66  ARG66       0.1694
      3  C          8.0400   31.9950   74.8250 C.2    66  ARG66       0.2592
      4  O          8.6380   30.9850   75.2200 O.2    66  ARG66      -0.2718
      5  CB         6.0240   32.4840   76.2750 C.3    66  ARG66       0.0321
      6  CG         4.4990   32.5810   76.3710 C.3    66  ARG66       0.0489
      7  CD         4.0620   33.1640   77.6980 C.3    66  ARG66       0.2205
      8  NE         2.6690   33.4960   77.7630 N.pl3  66  ARG66      -0.0865
      9  CZ         1.6580   32.8320   78.2980 C.cat  66  ARG66       0.5346
     10  NH1        1.8310   31.6700   78.9050 N.pl3  66  ARG66       0.1354
     11  NH2        0.4490   33.3680   78.2110 N.pl3  66  ARG66       0.1354
     12  N          8.6740   33.0400   74.3020 N.am   67  ALA67      -0.1966
     13  CA        10.1250   32.9610   74.1190 C.3    67  ALA67       0.1728
     14  C         10.6980   34.2760   73.6180 C.2    67  ALA67       0.2616
     15  O         10.1660   34.9010   72.7110 O.2    67  ALA67      -0.2715
     16  CB        10.4710   31.8670   73.1190 C.3    67  ALA67       0.0334
     17  N         11.8300   34.6390   74.2200 N.am   68  GLY68      -0.1955
     18  CA        12.5790   35.7910   73.7680 C.3    68  GLY68       0.1869
     19  C         13.7740   36.0660   74.6230 C.2    68  GLY68       0.2309
     20  O         13.7340   35.8720   75.8370 O.2    68  GLY68      -0.2863
     21  N          8.5050   37.1330   72.6170 N.3    94  THR94      -0.1218
     22  CA         8.2420   37.7420   73.9010 C.3    94  THR94       0.1862
     23  C          9.1600   38.9400   74.0900 C.2    94  THR94       0.2287
     24  O         10.3900   38.8150   74.0970 O.2    94  THR94      -0.2866
     25  CB         8.4410   36.7450   75.0560 C.3    94  THR94       0.1770
     26  OG1        7.5280   35.6500   74.8590 O.3    94  THR94      -0.2211
     27  CG2        8.1010   37.3750   76.3920 C.3    94  THR94       0.0375
     28  N          8.4100   47.3340   77.0750 N.3   100  ARG100     -0.1245
     29  CA         7.0110   47.4360   77.4430 C.3   100  ARG100      0.1563
     30  C          6.7530   48.7390   78.1960 C.2   100  ARG100      0.2260
     31  O          5.6020   49.1700   78.2210 O.2   100  ARG100     -0.2867
     32  CB         6.5850   46.2630   78.3190 C.3   100  ARG100      0.0307
     33  CG         6.7500   44.9170   77.6540 C.3   100  ARG100      0.0489
     34  CD         6.4000   43.8260   78.6300 C.3   100  ARG100      0.2205
     35  NE         6.6850   42.4980   78.1190 N.pl3 100  ARG100     -0.0865
     36  CZ         6.0380   41.3860   78.4330 C.cat 100  ARG100      0.5346
     37  NH1        5.0350   41.3550   79.2890 N.pl3 100  ARG100      0.1354
     38  NH2        6.4370   40.2400   77.8670 N.pl3 100  ARG100      0.1354
     39  N         14.6360   40.0750   79.9220 N.3   123  ASN123     -0.1240
     40  CA        13.6460   39.0030   80.0280 C.3   123  ASN123      0.1653
     41  C         12.8600   38.8680   78.7350 C.2   123  ASN123      0.2266
     42  O         11.7600   38.3230   78.7420 O.2   123  ASN123     -0.2867
     43  CB        12.7030   39.2480   81.2050 C.3   123  ASN123      0.1155
     44  CG        12.0130   40.5830   81.1470 C.2   123  ASN123      0.2627
     45  OD1       11.8310   41.1870   80.0930 O.2   123  ASN123     -0.2716
     46  ND2       11.5960   41.0680   82.3130 N.am  123  ASN123     -0.0877
     47  N         -0.2650   45.2360   83.9520 N.3   181  TYR181     -0.1241
     48  CA         1.0780   45.5720   83.4960 C.3   181  TYR181      0.1605
     49  C          1.5160   47.0150   83.7570 C.2   181  TYR181      0.2264
     50  O          2.5710   47.4340   83.2730 O.2   181  TYR181     -0.2867
     51  CB         1.1290   45.3680   81.9780 C.3   181  TYR181      0.0534
     52  CG         1.0830   43.9290   81.5090 C.ar  181  TYR181     -0.0201
     53  CD1       -0.0650   43.3470   80.9870 C.ar  181  TYR181     -0.0009
     54  CD2        2.2280   43.1520   81.5980 C.ar  181  TYR181     -0.0009
     55  CE1       -0.0770   42.0300   80.5640 C.ar  181  TYR181      0.0417
     56  CE2        2.2490   41.8410   81.1880 C.ar  181  TYR181      0.0417
     57  CZ         1.0860   41.2860   80.6780 C.ar  181  TYR181      0.1957
     58  OH         1.0830   39.9860   80.2570 O.3   181  TYR181     -0.2866
     59  N         -5.4020   39.8560   75.4880 N.3   216  PHE216     -0.1241
     60  CA        -4.8190   39.0470   76.5500 C.3   216  PHE216      0.1605
     61  C         -5.7890   38.6550   77.6490 C.2   216  PHE216      0.2264
     62  O         -6.0030   39.3740   78.6230 O.2   216  PHE216     -0.2867
     63  CB        -3.6440   39.8430   77.1510 C.3   216  PHE216      0.0534
     64  CG        -2.9050   39.1040   78.2640 C.ar  216  PHE216     -0.0203
     65  CD1       -2.3580   37.8510   78.0410 C.ar  216  PHE216     -0.0042
     66  CD2       -2.7800   39.6540   79.5170 C.ar  216  PHE216     -0.0042
     67  CE1       -1.7300   37.1770   79.0710 C.ar  216  PHE216     -0.0003
     68  CE2       -2.1500   38.9920   80.5640 C.ar  216  PHE216     -0.0003
     69  CZ        -1.6140   37.7390   80.3190 C.ar  216  PHE216     -0.0000
     70  N         -1.7120   30.0820   84.5650 N.3   294  MET294     -0.1245
     71  CA        -0.9920   31.3240   84.6560 C.3   294  MET294      0.1570
     72  C         -0.7280   31.7840   86.0810 C.2   294  MET294      0.2261
     73  O         -0.1740   32.8780   86.2400 O.2   294  MET294     -0.2867
     74  CB        -1.7680   32.4080   83.9010 C.3   294  MET294      0.0387
     75  CG        -1.9460   32.1560   82.4200 C.3   294  MET294      0.0595
     76  SD        -0.4530   32.3550   81.4330 S.3   294  MET294     -0.1393
     77  CE        -0.3190   34.1430   81.4450 C.3   294  MET294      0.0692
     78  N          3.2950   26.4260   78.8970 N.3   326  LYS326     -0.1245
     79  CA         4.1080   26.6400   80.0800 C.3   326  LYS326      0.1561
     80  C          5.2390   25.6180   80.1230 C.2   326  LYS326      0.2260
     81  O          5.2120   24.6370   79.3650 O.2   326  LYS326     -0.2867
     82  CB         3.2560   26.5480   81.3520 C.3   326  LYS326      0.0271
     83  CG         2.3060   27.7280   81.4880 C.3   326  LYS326      0.0035
     84  CD         2.9890   28.9220   82.1260 C.3   326  LYS326      0.0206
     85  CE         2.1590   30.1870   81.9850 C.3   326  LYS326      0.1093
     86  NZ         2.5420   31.2240   82.9910 N.3   326  LYS326     -0.1314
     87  N          8.8860   27.1650   85.0400 N.3   330  GLU330     -0.1245
     88  CA         8.0370   28.3010   85.3150 C.3   330  GLU330      0.1567
     89  C          8.1680   28.8930   86.7050 C.2   330  GLU330      0.2260
     90  O          8.1500   30.1070   86.9120 O.2   330  GLU330     -0.2867
     91  CB         6.5780   27.8330   85.1170 C.3   330  GLU330      0.0388
     92  CG         5.6060   28.9460   85.3850 C.3   330  GLU330      0.1160
     93  CD         5.6730   30.0810   84.3720 C.2   330  GLU330      0.3649
     94  OE1        6.2580   29.9290   83.2750 O.co2 330  GLU330     -0.2457
     95  OE2        5.1490   31.1680   84.7110 O.co2 330  GLU330     -0.2457
     96  N         13.0800   32.2730   83.3440 N.3   334  ILE334     -0.1231
     97  CA        12.8230   32.1250   81.9150 C.3   334  ILE334      0.1678
     98  C         13.4070   30.8010   81.4390 C.2   334  ILE334      0.2434
     99  O         14.5670   30.5020   81.7200 O.2   334  ILE334     -0.2733
    100  CB        13.4730   33.2480   81.0980 C.3   334  ILE334      0.0265
    101  CG1       13.1360   34.6740   81.5240 C.3   334  ILE334      0.0019
    102  CG2       13.1470   33.0380   79.6290 C.3   334  ILE334      0.0020
    103  CD1       11.6590   34.9900   81.4520 C.3   334  ILE334      0.0001
    104  N         12.5920   29.9810   80.7850 N.am  335  PRO335     -0.2729
    105  CA        13.0370   28.6430   80.4130 C.3   335  PRO335      0.1401
    106  C         14.2200   28.6380   79.4380 C.2   335  PRO335      0.2269
    107  O         14.3430   29.4780   78.5670 O.2   335  PRO335     -0.2865
    108  CB        11.8110   28.0310   79.7210 C.3   335  PRO335      0.0296
    109  CG        10.9870   29.2170   79.3200 C.3   335  PRO335      0.0237
    110  CD        11.2020   30.2660   80.3870 C.3   335  PRO335      0.0939
    111  N         11.7770   24.6300   77.4790 N.3   340  ASN340     -0.1240
    112  CA        10.6890   25.1170   76.6270 C.3   340  ASN340      0.1653
    113  C         10.2300   24.0240   75.6730 C.2   340  ASN340      0.2266
    114  O          9.0440   23.6590   75.5680 O.2   340  ASN340     -0.2867
    115  CB        11.1310   26.3950   75.9070 C.3   340  ASN340      0.1155
    116  CG         9.9520   27.2770   75.5530 C.2   340  ASN340      0.2627
    117  OD1        8.8590   26.7820   75.2960 O.2   340  ASN340     -0.2716
    118  ND2       10.1100   28.5950   75.5130 N.am  340  ASN340     -0.0877
@<TRIPOS>BOND
     1    21    22    1
     2    15    14    2
     3    16    13    1
     4    14    13    1
     5    14    17   am
     6    18    17    1
     7    18    19    1
     8    22    23    1
     9    22    25    1
    10    23    24    2
    11    13    12    1
    12    12     3   am
    13     1     2    1
    14    19    20    2
    15     3     2    1
    16     3     4    2
    17    26    25    1
    18     2     5    1
    19    25    27    1
    20   117   116    2
    21    59    60    1
    22   118   116   am
    23   116   115    1
    24   114   113    2
    25   113   112    1
    26   115   112    1
    27     5     6    1
    28     6     7    1
    29    60    63    1
    30    60    61    1
    31   112   111    1
    32    28    29    1
    33    63    64    1
    34    29    30    1
    35    29    32    1
    36    61    62    2
    37    33    32    1
    38    33    34    1
    39     7     8    1
    40     8     9    2
    41    38    36    1
    42    65    64   ar
    43    65    67   ar
    44    35    36    2
    45    35    34    1
    46    30    31    2
    47    11     9    1
    48    64    66   ar
    49     9    10    1
    50    36    37    1
    51   107   106    2
    52    41    42    2
    53    41    40    1
    54    78    79    1
    55    67    69   ar
    56   109   108    1
    57   109   110    1
    58    81    80    2
    59   106   105    1
    60    66    68   ar
    61   102   100    1
    62   108   105    1
    63    39    40    1
    64    40    43    1
    65    79    80    1
    66    79    82    1
    67    45    44    2
    68    58    57    1
    69    69    68   ar
    70   110   104    1
    71   105   104    1
    72    55    57   ar
    73    55    53   ar
    74    57    56   ar
    75   104    98   am
    76    53    52   ar
    77   100   101    1
    78   100    97    1
    79    44    43    1
    80    44    46   am
    81    56    54   ar
    82    82    83    1
    83    76    77    1
    84    76    75    1
    85    98    99    2
    86    98    97    1
    87   103   101    1
    88    83    84    1
    89    52    54   ar
    90    52    51    1
    91    97    96    1
    92    51    48    1
    93    85    84    1
    94    85    86    1
    95    75    74    1
    96    50    49    2
    97    94    93   ar
    98    48    49    1
    99    48    47    1
   100    74    71    1
   101    93    95   ar
   102    93    92    1
   103    70    71    1
   104    71    72    1
   105    87    88    1
   106    91    88    1
   107    91    92    1
   108    88    89    1
   109    72    73    2
   110    89    90    2
