@<TRIPOS>MOLECULE
tmp/1i9cD02.pdb
 112 107 0 0 0
SMALL
GASTEIGER

@<TRIPOS>ATOM
      1  N          6.0440   30.7300   74.5560 N.3    66  ARG66      -0.1245
      2  CA         6.5190   32.0570   74.9000 C.3    66  ARG66       0.1563
      3  C          8.0400   31.9950   74.8250 C.2    66  ARG66       0.2260
      4  O          8.6380   30.9850   75.2200 O.2    66  ARG66      -0.2867
      5  CB         6.0240   32.4840   76.2750 C.3    66  ARG66       0.0307
      6  CG         4.4990   32.5810   76.3710 C.3    66  ARG66       0.0489
      7  CD         4.0620   33.1640   77.6980 C.3    66  ARG66       0.2205
      8  NE         2.6690   33.4960   77.7630 N.pl3  66  ARG66      -0.0865
      9  CZ         1.6580   32.8320   78.2980 C.cat  66  ARG66       0.5346
     10  NH1        1.8310   31.6700   78.9050 N.pl3  66  ARG66       0.1354
     11  NH2        0.4490   33.3680   78.2110 N.pl3  66  ARG66       0.1354
     12  N          8.5050   37.1330   72.6170 N.3    94  THR94      -0.1218
     13  CA         8.2420   37.7420   73.9010 C.3    94  THR94       0.1862
     14  C          9.1600   38.9400   74.0900 C.2    94  THR94       0.2287
     15  O         10.3900   38.8150   74.0970 O.2    94  THR94      -0.2866
     16  CB         8.4410   36.7450   75.0560 C.3    94  THR94       0.1770
     17  OG1        7.5280   35.6500   74.8590 O.3    94  THR94      -0.2211
     18  CG2        8.1010   37.3750   76.3920 C.3    94  THR94       0.0375
     19  N          8.4100   47.3340   77.0750 N.3   100  ARG100     -0.1245
     20  CA         7.0110   47.4360   77.4430 C.3   100  ARG100      0.1563
     21  C          6.7530   48.7390   78.1960 C.2   100  ARG100      0.2260
     22  O          5.6020   49.1700   78.2210 O.2   100  ARG100     -0.2867
     23  CB         6.5850   46.2630   78.3190 C.3   100  ARG100      0.0307
     24  CG         6.7500   44.9170   77.6540 C.3   100  ARG100      0.0489
     25  CD         6.4000   43.8260   78.6300 C.3   100  ARG100      0.2205
     26  NE         6.6850   42.4980   78.1190 N.pl3 100  ARG100     -0.0865
     27  CZ         6.0380   41.3860   78.4330 C.cat 100  ARG100      0.5346
     28  NH1        5.0350   41.3550   79.2890 N.pl3 100  ARG100      0.1354
     29  NH2        6.4370   40.2400   77.8670 N.pl3 100  ARG100      0.1354
     30  N          4.1460   38.9600   71.5370 N.3   149  ARG149     -0.1231
     31  CA         3.5950   38.6470   72.8360 C.3   149  ARG149      0.1694
     32  C          4.3140   39.4940   73.8700 C.2   149  ARG149      0.2592
     33  O          5.5420   39.5430   73.9400 O.2   149  ARG149     -0.2718
     34  CB         3.7530   37.1310   73.1020 C.3   149  ARG149      0.0321
     35  CG         2.9690   36.3190   72.0900 C.3   149  ARG149      0.0489
     36  CD         2.7360   34.8740   72.5320 C.3   149  ARG149      0.2205
     37  NE         1.6620   34.8570   73.5170 N.pl3 149  ARG149     -0.0865
     38  CZ         0.3740   34.7030   73.2710 C.cat 149  ARG149      0.5346
     39  NH1       -0.1080   34.5190   72.0520 N.pl3 149  ARG149      0.1354
     40  NH2       -0.4850   34.7310   74.2780 N.pl3 149  ARG149      0.1354
     41  N          3.5380   40.2150   74.6940 N.am  150  HIS150     -0.1976
     42  CA         4.2130   41.1970   75.5470 C.3   150  HIS150      0.1656
     43  C          3.2890   41.6920   76.6380 C.2   150  HIS150      0.2291
     44  O          2.7660   40.8790   77.3840 O.2   150  HIS150     -0.2864
     45  CB         4.7480   42.3150   74.6420 C.3   150  HIS150      0.0771
     46  CG         3.7910   42.9860   73.7240 C.ar  150  HIS150      0.0820
     47  ND1        3.3690   44.2860   73.9180 N.ar  150  HIS150     -0.2267
     48  CD2        3.1700   42.5720   72.5910 C.ar  150  HIS150      0.1154
     49  CE1        2.5360   44.6500   72.9710 C.ar  150  HIS150      0.1986
     50  NE2        2.4020   43.6180   72.1500 N.ar  150  HIS150     -0.2212
     51  N         -0.4400   40.7540   70.0770 N.3   171  GLU171     -0.1245
     52  CA        -1.2760   40.4420   71.2400 C.3   171  GLU171      0.1567
     53  C         -1.5320   41.6990   72.0450 C.2   171  GLU171      0.2260
     54  O         -0.6980   42.6140   72.0060 O.2   171  GLU171     -0.2867
     55  CB        -0.5560   39.4050   72.1080 C.3   171  GLU171      0.0388
     56  CG        -1.3700   38.9510   73.2980 C.3   171  GLU171      0.1160
     57  CD        -0.6270   38.0480   74.2550 C.2   171  GLU171      0.3649
     58  OE1        0.5610   37.7180   74.0300 O.co2 171  GLU171     -0.2457
     59  OE2       -1.2490   37.6720   75.2770 O.co2 171  GLU171     -0.2457
     60  N         -3.5650   45.0080   78.4680 N.3   177  TYR177     -0.1241
     61  CA        -2.1420   45.3540   78.5020 C.3   177  TYR177      0.1605
     62  C         -1.9350   46.6820   79.2220 C.2   177  TYR177      0.2264
     63  O         -0.8940   47.3180   79.0620 O.2   177  TYR177     -0.2867
     64  CB        -1.5360   45.3770   77.0950 C.3   177  TYR177      0.0534
     65  CG        -0.9760   44.0370   76.6430 C.ar  177  TYR177     -0.0201
     66  CD1       -0.1580   43.9920   75.5210 C.ar  177  TYR177     -0.0009
     67  CD2       -1.2330   42.8250   77.2730 C.ar  177  TYR177     -0.0009
     68  CE1        0.3750   42.7990   75.0740 C.ar  177  TYR177      0.0417
     69  CE2       -0.7140   41.6330   76.8470 C.ar  177  TYR177      0.0417
     70  CZ         0.0940   41.6330   75.7340 C.ar  177  TYR177      0.1957
     71  OH         0.6280   40.4540   75.2690 O.3   177  TYR177     -0.2866
     72  N         -0.2650   45.2360   83.9520 N.3   181  TYR181     -0.1241
     73  CA         1.0780   45.5720   83.4960 C.3   181  TYR181      0.1605
     74  C          1.5160   47.0150   83.7570 C.2   181  TYR181      0.2264
     75  O          2.5710   47.4340   83.2730 O.2   181  TYR181     -0.2867
     76  CB         1.1290   45.3680   81.9780 C.3   181  TYR181      0.0534
     77  CG         1.0830   43.9290   81.5090 C.ar  181  TYR181     -0.0201
     78  CD1       -0.0650   43.3470   80.9870 C.ar  181  TYR181     -0.0009
     79  CD2        2.2280   43.1520   81.5980 C.ar  181  TYR181     -0.0009
     80  CE1       -0.0770   42.0300   80.5640 C.ar  181  TYR181      0.0417
     81  CE2        2.2490   41.8410   81.1880 C.ar  181  TYR181      0.0417
     82  CZ         1.0860   41.2860   80.6780 C.ar  181  TYR181      0.1957
     83  OH         1.0830   39.9860   80.2570 O.3   181  TYR181     -0.2866
     84  N         -5.4020   39.8560   75.4880 N.3   216  PHE216     -0.1241
     85  CA        -4.8190   39.0470   76.5500 C.3   216  PHE216      0.1605
     86  C         -5.7890   38.6550   77.6490 C.2   216  PHE216      0.2264
     87  O         -6.0030   39.3740   78.6230 O.2   216  PHE216     -0.2867
     88  CB        -3.6440   39.8430   77.1510 C.3   216  PHE216      0.0534
     89  CG        -2.9050   39.1040   78.2640 C.ar  216  PHE216     -0.0203
     90  CD1       -2.3580   37.8510   78.0410 C.ar  216  PHE216     -0.0042
     91  CD2       -2.7800   39.6540   79.5170 C.ar  216  PHE216     -0.0042
     92  CE1       -1.7300   37.1770   79.0710 C.ar  216  PHE216     -0.0003
     93  CE2       -2.1500   38.9920   80.5640 C.ar  216  PHE216     -0.0003
     94  CZ        -1.6140   37.7390   80.3190 C.ar  216  PHE216     -0.0000
     95  N         -4.8800   29.5730   77.7380 N.3   291  HIS291     -0.1241
     96  CA        -3.5740   29.6130   78.3930 C.3   291  HIS291      0.1621
     97  C         -3.5140   28.6210   79.5450 C.2   291  HIS291      0.2264
     98  O         -4.3410   28.6120   80.4510 O.2   291  HIS291     -0.2867
     99  CB        -3.2610   31.0030   78.9560 C.3   291  HIS291      0.0745
    100  CG        -3.3480   32.1200   77.9700 C.ar  291  HIS291      0.0817
    101  ND1       -2.3010   33.0080   77.8070 N.ar  291  HIS291     -0.2268
    102  CD2       -4.3270   32.5280   77.1310 C.ar  291  HIS291      0.1154
    103  CE1       -2.6390   33.9000   76.8910 C.ar  291  HIS291      0.1986
    104  NE2       -3.8460   33.6410   76.4600 N.ar  291  HIS291     -0.2212
    105  N         -1.7120   30.0820   84.5650 N.3   294  MET294     -0.1245
    106  CA        -0.9920   31.3240   84.6560 C.3   294  MET294      0.1570
    107  C         -0.7280   31.7840   86.0810 C.2   294  MET294      0.2261
    108  O         -0.1740   32.8780   86.2400 O.2   294  MET294     -0.2867
    109  CB        -1.7680   32.4080   83.9010 C.3   294  MET294      0.0387
    110  CG        -1.9460   32.1560   82.4200 C.3   294  MET294      0.0595
    111  SD        -0.4530   32.3550   81.4330 S.3   294  MET294     -0.1393
    112  CE        -0.3190   34.1430   81.4450 C.3   294  MET294      0.0692
@<TRIPOS>BOND
     1    51    52    1
     2    52    53    1
     3    52    55    1
     4    30    31    1
     5    54    53    2
     6    39    38    1
     7    35    36    1
     8    35    34    1
     9    55    56    1
    10    50    48   ar
    11    50    49   ar
    12    36    37    1
    13    48    46   ar
    14    12    13    1
    15    31    34    1
    16    31    32    1
    17    49    47   ar
    18    38    37    2
    19    38    40    1
    20    56    57    1
    21    46    47   ar
    22    46    45    1
    23    32    33    2
    24    32    41   am
    25    13    14    1
    26    13    16    1
    27    58    57   ar
    28    14    15    2
    29    57    59   ar
    30     1     2    1
    31    45    42    1
    32    41    42    1
    33     3     2    1
    34     3     4    2
    35    17    16    1
    36     2     5    1
    37    16    18    1
    38    68    66   ar
    39    68    70   ar
    40    71    70    1
    41    84    85    1
    42    66    65   ar
    43    42    43    1
    44    70    69   ar
    45     5     6    1
    46     6     7    1
    47   104   103   ar
    48   104   102   ar
    49    85    88    1
    50    85    86    1
    51    43    44    2
    52    65    64    1
    53    65    67   ar
    54    69    67   ar
    55   103   101   ar
    56    19    20    1
    57    64    61    1
    58   102   100   ar
    59    88    89    1
    60    20    21    1
    61    20    23    1
    62    86    87    2
    63    24    23    1
    64    24    25    1
    65     7     8    1
    66    95    96    1
    67     8     9    2
    68   101   100   ar
    69    29    27    1
    70   100    99    1
    71    90    89   ar
    72    90    92   ar
    73    26    27    2
    74    26    25    1
    75    21    22    2
    76    11     9    1
    77    89    91   ar
    78     9    10    1
    79    96    99    1
    80    96    97    1
    81    27    28    1
    82    60    61    1
    83    61    62    1
    84    63    62    2
    85    92    94   ar
    86    91    93   ar
    87    97    98    2
    88    83    82    1
    89    94    93   ar
    90    80    82   ar
    91    80    78   ar
    92    82    81   ar
    93    78    77   ar
    94    81    79   ar
    95   111   112    1
    96   111   110    1
    97    77    79   ar
    98    77    76    1
    99    76    73    1
   100   110   109    1
   101    75    74    2
   102    73    74    1
   103    73    72    1
   104   109   106    1
   105   105   106    1
   106   106   107    1
   107   107   108    2
