@<TRIPOS>MOLECULE
tmp/1i9gA00.pdb
 195 190 0 0 0
SMALL
GASTEIGER

@<TRIPOS>ATOM
      1  N         19.6550  -17.6900   17.6370 N.3    77  PRO77      -0.2102
      2  CA        19.3640  -16.4680   16.9000 C.3    77  PRO77       0.1504
      3  C         20.6930  -15.8480   16.4630 C.2    77  PRO77       0.2576
      4  O         21.6860  -15.9530   17.1930 O.2    77  PRO77      -0.2718
      5  CB        18.5820  -15.6160   17.8800 C.3    77  PRO77       0.0282
      6  CG        18.1200  -16.5290   18.9610 C.3    77  PRO77       0.0208
      7  CD        19.0980  -17.6810   19.0060 C.3    77  PRO77       0.0893
      8  N         20.7410  -15.2780   15.2720 N.am   78  GLN78      -0.1966
      9  CA        21.9550  -14.6870   14.7200 C.3    78  GLN78       0.1733
     10  C         22.5760  -13.5940   15.5860 C.2    78  GLN78       0.2616
     11  O         21.9520  -12.5860   15.9030 O.2    78  GLN78      -0.2715
     12  CB        21.6650  -14.1210   13.3240 C.3    78  GLN78       0.0408
     13  CG        22.8370  -13.3950   12.6660 C.3    78  GLN78       0.0908
     14  CD        24.0500  -14.2810   12.4690 C.2    78  GLN78       0.2608
     15  OE1       25.1150  -14.0930   13.0730 O.2    78  GLN78      -0.2717
     16  NE2       23.9180  -15.2830   11.6040 N.am   78  GLN78      -0.0878
     17  N         23.8450  -13.7820   15.9460 N.am   79  VAL79      -0.1963
     18  CA        24.5530  -12.8080   16.7590 C.3    79  VAL79       0.1727
     19  C         24.8720  -11.5610   15.9400 C.2    79  VAL79       0.2616
     20  O         25.0470  -11.6130   14.7220 O.2    79  VAL79      -0.2715
     21  CB        25.8730  -13.3400   17.3630 C.3    79  VAL79       0.0290
     22  CG1       25.6080  -14.4950   18.3140 C.3    79  VAL79       0.0023
     23  CG2       26.8300  -13.7860   16.2600 C.3    79  VAL79       0.0023
     24  N         24.9290  -10.4320   16.6330 N.am   80  ILE80      -0.1977
     25  CA        25.3290   -9.1880   15.9570 C.3    80  ILE80       0.1596
     26  C         26.8160   -9.3510   15.6440 C.2    80  ILE80       0.2287
     27  O         27.4920  -10.0720   16.3940 O.2    80  ILE80      -0.2864
     28  CB        25.0440   -7.9850   16.8560 C.3    80  ILE80       0.0276
     29  CG1       25.5250   -6.6870   16.2280 C.3    80  ILE80       0.0022
     30  CG2       25.6920   -8.1730   18.2320 C.3    80  ILE80       0.0022
     31  CD1       25.0790   -5.4670   16.9890 C.3    80  ILE80       0.0001
     32  N         17.4350   -3.2800   26.1210 N.3   102  GLU102     -0.1231
     33  CA        17.7640   -4.0180   24.9290 C.3   102  GLU102      0.1699
     34  C         16.5910   -4.9180   24.5670 C.2   102  GLU102      0.2592
     35  O         15.9710   -5.5790   25.4080 O.2   102  GLU102     -0.2718
     36  CB        19.0030   -4.9190   25.1340 C.3   102  GLU102      0.0402
     37  CG        19.2790   -5.8930   24.0030 C.3   102  GLU102      0.1161
     38  CD        20.3750   -6.9010   24.2660 C.2   102  GLU102      0.3649
     39  OE1       20.5210   -7.4300   25.3980 O.co2 102  GLU102     -0.2457
     40  OE2       21.1460   -7.2190   23.3190 O.co2 102  GLU102     -0.2457
     41  N         16.3330   -4.9940   23.2610 N.am  103  ALA103     -0.1966
     42  CA        15.3010   -5.8840   22.8100 C.3   103  ALA103      0.1728
     43  C         15.6900   -6.2510   21.3340 C.2   103  ALA103      0.2617
     44  O         15.8940   -5.4760   20.4840 O.2   103  ALA103     -0.2715
     45  CB        13.8590   -5.4960   22.9000 C.3   103  ALA103      0.0334
     46  N         15.5680   -7.4960   21.2570 N.am  104  GLY104     -0.1940
     47  CA        15.7420   -8.8180   21.0150 C.3   104  GLY104      0.2014
     48  C         16.9590   -9.2900   21.8480 C.2   104  GLY104      0.2639
     49  O         18.0300   -8.9990   21.2970 O.2   104  GLY104     -0.2714
     50  N         16.8970  -10.0010   22.9840 N.am  105  ALA105     -0.1963
     51  CA        18.1330  -10.5120   23.5750 C.3   105  ALA105      0.1728
     52  C         18.8200  -11.5020   22.6260 C.2   105  ALA105      0.2617
     53  O         20.0580  -11.5450   22.5210 O.2   105  ALA105     -0.2715
     54  CB        17.9750  -11.2000   24.9330 C.3   105  ALA105      0.0334
     55  N         18.0490  -12.3460   21.9420 N.am  106  GLY106     -0.1940
     56  CA        18.5240  -13.2900   20.9550 C.3   106  GLY106      0.2014
     57  C         19.4900  -14.2970   21.5590 C.2   106  GLY106      0.2639
     58  O         19.1390  -15.0160   22.5060 O.2   106  GLY106     -0.2714
     59  N         20.7390  -14.3160   21.0580 N.am  107  SER107     -0.1949
     60  CA        21.7430  -15.1890   21.6510 C.3   107  SER107      0.1924
     61  C         22.5550  -14.5410   22.7600 C.2   107  SER107      0.2314
     62  O         23.4770  -15.1610   23.3120 O.2   107  SER107     -0.2863
     63  CB        22.6880  -15.6690   20.5400 C.3   107  SER107      0.2116
     64  OG        21.9770  -16.5860   19.7170 O.3   107  SER107     -0.2180
     65  N         24.7050  -12.0260   22.4050 N.3   109  ALA109     -0.1231
     66  CA        26.0290  -11.5100   21.9860 C.3   109  ALA109      0.1694
     67  C         26.1190  -10.0200   22.2420 C.2   109  ALA109      0.2591
     68  O         27.1090   -9.5810   22.8470 O.2   109  ALA109     -0.2718
     69  CB        26.3140  -11.8440   20.5330 C.3   109  ALA109      0.0304
     70  N         25.1400   -9.2160   21.7870 N.am  110  LEU110     -0.1980
     71  CA        25.1840   -7.7950   22.0820 C.3   110  LEU110      0.1596
     72  C         25.0540   -7.5560   23.5800 C.2   110  LEU110      0.2287
     73  O         25.6940   -6.6410   24.1120 O.2   110  LEU110     -0.2864
     74  CB        24.0910   -6.9870   21.3430 C.3   110  LEU110      0.0297
     75  CG        24.0860   -5.4850   21.6410 C.3   110  LEU110      0.0022
     76  CD1       25.3790   -4.8050   21.2030 C.3   110  LEU110      0.0001
     77  CD2       22.8870   -4.7950   20.9830 C.3   110  LEU110      0.0001
     78  N         14.7520   -7.7290   26.8380 N.3   127  TYR127     -0.1227
     79  CA        13.5070   -8.4190   26.5760 C.3   127  TYR127      0.1736
     80  C         13.7670   -9.4410   25.4860 C.2   127  TYR127      0.2595
     81  O         14.5530   -9.2010   24.5480 O.2   127  TYR127     -0.2718
     82  CB        12.3960   -7.4620   26.0840 C.3   127  TYR127      0.0548
     83  CG        11.7800   -6.6960   27.2330 C.ar  127  TYR127     -0.0200
     84  CD1       10.5300   -7.0370   27.7250 C.ar  127  TYR127     -0.0009
     85  CD2       12.4620   -5.6680   27.8490 C.ar  127  TYR127     -0.0009
     86  CE1        9.9840   -6.3620   28.8100 C.ar  127  TYR127      0.0417
     87  CE2       11.9290   -4.9740   28.9160 C.ar  127  TYR127      0.0417
     88  CZ        10.6780   -5.3380   29.3960 C.ar  127  TYR127      0.1957
     89  OH        10.1560   -4.6340   30.4500 O.3   127  TYR127     -0.2866
     90  N         13.1330  -10.5960   25.6120 N.am  128  GLU128     -0.1965
     91  CA        13.2130  -11.6550   24.6300 C.3   128  GLU128      0.1733
     92  C         11.8370  -12.3370   24.6500 C.2   128  GLU128      0.2616
     93  O         11.5830  -13.0890   25.5980 O.2   128  GLU128     -0.2715
     94  CB        14.3190  -12.6680   24.8840 C.3   128  GLU128      0.0429
     95  CG        14.3270  -13.8500   23.9260 C.3   128  GLU128      0.1163
     96  CD        14.2020  -13.4370   22.4640 C.2   128  GLU128      0.3649
     97  OE1       13.2300  -13.8840   21.8040 O.co2 128  GLU128     -0.2457
     98  OE2       15.0780  -12.6780   21.9770 O.co2 128  GLU128     -0.2457
     99  N         11.0140  -12.0580   23.6460 N.am  129  GLN129     -0.1963
    100  CA         9.6750  -12.6380   23.6460 C.3   129  GLN129      0.1733
    101  C          9.6330  -14.1370   23.4470 C.2   129  GLN129      0.2616
    102  O          8.5880  -14.7050   23.8180 O.2   129  GLN129     -0.2715
    103  CB         8.7540  -11.9070   22.6720 C.3   129  GLN129      0.0408
    104  CG         8.8950  -12.2960   21.2150 C.3   129  GLN129      0.0908
    105  CD         8.1860  -11.3460   20.2660 C.2   129  GLN129      0.2608
    106  OE1        8.4390  -11.3650   19.0570 O.2   129  GLN129     -0.2717
    107  NE2        7.3070  -10.5320   20.8130 N.am  129  GLN129     -0.0878
    108  N         10.6230  -14.8050   22.8690 N.am  130  ARG130     -0.1974
    109  CA        10.5820  -16.2570   22.7530 C.3   130  ARG130      0.1640
    110  C         11.2790  -16.9170   23.9390 C.2   130  ARG130      0.2290
    111  O         12.4720  -16.6710   24.1740 O.2   130  ARG130     -0.2864
    112  CB        11.2080  -16.7640   21.4550 C.3   130  ARG130      0.0589
    113  CG        10.7500  -16.0680   20.1940 C.2   130  ARG130      0.0162
    114  CD        10.5600  -16.9550   18.9980 C.2   130  ARG130      0.1886
    115  NE        11.1010  -18.3080   19.0380 N.pl3 130  ARG130     -0.0578
    116  CZ        11.2510  -19.0570   17.9480 C.cat 130  ARG130      0.5393
    117  NH1       10.9120  -18.5660   16.7570 N.pl3 130  ARG130      0.1358
    118  NH2       11.7590  -20.2840   17.9950 N.pl3 130  ARG130      0.1358
    119  N         14.5220  -18.8290   22.7430 N.3   133  HIS133     -0.1241
    120  CA        15.6340  -17.9010   22.4930 C.3   133  HIS133      0.1621
    121  C         16.2110  -17.3700   23.7930 C.2   133  HIS133      0.2264
    122  O         17.4260  -17.2830   24.0140 O.2   133  HIS133     -0.2867
    123  CB        15.1470  -16.7190   21.6420 C.3   133  HIS133      0.0745
    124  CG        14.8440  -17.0770   20.2230 C.ar  133  HIS133      0.0817
    125  ND1       14.7310  -16.1430   19.2260 N.ar  133  HIS133     -0.2268
    126  CD2       14.6640  -18.2850   19.6190 C.ar  133  HIS133      0.1154
    127  CE1       14.4720  -16.7470   18.0790 C.ar  133  HIS133      0.1986
    128  NE2       14.4320  -18.0570   18.2890 N.ar  133  HIS133     -0.2212
    129  N          9.1880  -11.5250   27.4530 N.3   157  SER157     -0.1202
    130  CA         7.9460  -10.9520   26.9630 C.3   157  SER157      0.2020
    131  C          8.2250   -9.9550   25.8450 C.2   157  SER157      0.2619
    132  O          9.3750   -9.5760   25.5850 O.2   157  SER157     -0.2717
    133  CB         7.1840  -10.3000   28.1140 C.3   157  SER157      0.2103
    134  OG         7.5430   -8.9560   28.2740 O.3   157  SER157     -0.2182
    135  N          7.1610   -9.6030   25.1440 N.am  158  ASP158     -0.1959
    136  CA         7.2450   -8.6030   24.0810 C.3   158  ASP158      0.1840
    137  C          7.5770   -7.2790   24.7380 C.2   158  ASP158      0.2621
    138  O          6.8970   -6.8950   25.7040 O.2   158  ASP158     -0.2715
    139  CB         5.8900   -8.5430   23.3720 C.3   158  ASP158      0.1450
    140  CG         5.8240   -7.5280   22.2500 C.2   158  ASP158      0.3671
    141  OD1        4.8930   -7.7230   21.4300 O.co2 158  ASP158     -0.2456
    142  OD2        6.6180   -6.5690   22.1700 O.co2 158  ASP158     -0.2456
    143  N          8.5660   -6.5370   24.2270 N.am  159  LEU159     -0.1977
    144  CA         8.9030   -5.2440   24.8090 C.3   159  LEU159      0.1596
    145  C          7.7300   -4.2710   24.8140 C.2   159  LEU159      0.2287
    146  O          7.6190   -3.4030   25.6940 O.2   159  LEU159     -0.2864
    147  CB        10.1160   -4.6080   24.0850 C.3   159  LEU159      0.0297
    148  CG        10.3960   -3.1430   24.4240 C.3   159  LEU159      0.0022
    149  CD1       10.6800   -2.9240   25.9150 C.3   159  LEU159      0.0001
    150  CD2       11.6060   -2.6370   23.6260 C.3   159  LEU159      0.0001
    151  N         17.3210   -4.6430   18.1340 N.3   175  ASP175     -0.1225
    152  CA        17.6920   -5.6000   17.1050 C.3   175  ASP175      0.1805
    153  C         16.5390   -6.6190   17.0220 C.2   175  ASP175      0.2598
    154  O         16.4760   -7.5760   17.7970 O.2   175  ASP175     -0.2718
    155  CB        19.0130   -6.2940   17.4300 C.3   175  ASP175      0.1424
    156  CG        19.3660   -7.3880   16.4510 C.2   175  ASP175      0.3668
    157  OD1       20.3110   -8.1660   16.7100 O.co2 175  ASP175     -0.2456
    158  OD2       18.6850   -7.4740   15.4010 O.co2 175  ASP175     -0.2456
    159  N         15.6330   -6.4170   16.0740 N.am  176  MET176     -0.1965
    160  CA        14.4850   -7.2900   15.8620 C.3   176  MET176      0.1736
    161  C         13.9270   -7.0280   14.4640 C.2   176  MET176      0.2616
    162  O         14.2430   -6.0280   13.8240 O.2   176  MET176     -0.2715
    163  CB        13.3730   -7.0430   16.8960 C.3   176  MET176      0.0427
    164  CG        12.8660   -5.6030   16.9290 C.3   176  MET176      0.0599
    165  SD        11.5620   -5.3010   18.1760 S.3   176  MET176     -0.1393
    166  CE        12.4830   -5.5430   19.6840 C.3   176  MET176      0.0692
    167  N         13.0460   -7.9200   14.0150 N.am  177  LEU177     -0.1963
    168  CA        12.4560   -7.8170   12.7020 C.3   177  LEU177      0.1728
    169  C         11.5980   -6.5740   12.5630 C.2   177  LEU177      0.2616
    170  O         11.6700   -5.9090   11.5330 O.2   177  LEU177     -0.2715
    171  CB        11.5950   -9.0590   12.4200 C.3   177  LEU177      0.0311
    172  CG        12.3200  -10.2380   11.7620 C.3   177  LEU177      0.0022
    173  CD1       11.4860  -11.5150   11.8680 C.3   177  LEU177      0.0001
    174  CD2       12.5940   -9.9410   10.2810 C.3   177  LEU177      0.0001
    175  N         10.8210   -6.2200   13.5940 N.am  178  ALA178     -0.1977
    176  CA         9.9140   -5.0850   13.4800 C.3   178  ALA178      0.1597
    177  C          9.9840   -4.1310   14.6450 C.2   178  ALA178      0.2287
    178  O          9.0680   -4.0440   15.4830 O.2   178  ALA178     -0.2864
    179  CB         8.4830   -5.6300   13.3250 C.3   178  ALA178      0.0319
    180  N          7.1220   -1.7310   15.9850 N.3   181  GLU181     -0.1231
    181  CA         6.1190   -2.2750   16.8860 C.3   181  GLU181      0.1699
    182  C          6.3900   -2.0050   18.3590 C.2   181  GLU181      0.2592
    183  O          5.4920   -2.1640   19.1990 O.2   181  GLU181     -0.2718
    184  CB         5.9880   -3.7950   16.7340 C.3   181  GLU181      0.0402
    185  CG         5.2280   -4.1830   15.4660 C.3   181  GLU181      0.1161
    186  CD         5.1850   -5.6670   15.1990 C.2   181  GLU181      0.3649
    187  OE1        4.7640   -5.9850   14.0720 O.co2 181  GLU181     -0.2457
    188  OE2        5.5680   -6.5070   16.0500 O.co2 181  GLU181     -0.2457
    189  N          7.6150   -1.6260   18.7390 N.am  182  VAL182     -0.1980
    190  CA         7.9290   -1.3880   20.1360 C.3   182  VAL182      0.1595
    191  C          8.3080    0.0530   20.3920 C.2   182  VAL182      0.2287
    192  O          8.7090    0.3640   21.5220 O.2   182  VAL182     -0.2864
    193  CB         9.0930   -2.2870   20.6120 C.3   182  VAL182      0.0276
    194  CG1        8.7220   -3.7540   20.4660 C.3   182  VAL182      0.0022
    195  CG2       10.3660   -1.9650   19.8240 C.3   182  VAL182      0.0022
@<TRIPOS>BOND
     1   174   172    1
     2   170   169    2
     3    16    14   am
     4   172   173    1
     5   172   171    1
     6   171   168    1
     7    14    13    1
     8    14    15    2
     9   169   168    1
    10   169   175   am
    11    13    12    1
    12   168   167    1
    13    12     9    1
    14   179   176    1
    15   176   175    1
    16   176   177    1
    17   162   161    2
    18   167   161   am
    19   187   186   ar
    20   161   160    1
    21   177   178    2
    22     9     8    1
    23     9    10    1
    24    20    19    2
    25   186   185    1
    26   186   188   ar
    27     8     3   am
    28   158   156   ar
    29   185   184    1
    30    10    11    2
    31    10    17   am
    32    26    25    1
    33    26    27    2
    34   160   159    1
    35   160   163    1
    36    19    24   am
    37    19    18    1
    38    17    18    1
    39    25    24    1
    40    25    28    1
    41   180   181    1
    42   159   153   am
    43    29    28    1
    44    29    31    1
    45    23    21    1
    46   156   157   ar
    47   156   155    1
    48     3     2    1
    49     3     4    2
    50   184   181    1
    51   117   116    1
    52    18    21    1
    53    28    30    1
    54   181   182    1
    55   163   164    1
    56     2     1    1
    57     2     5    1
    58   164   165    1
    59   153   152    1
    60   153   154    2
    61   152   155    1
    62   152   151    1
    63    21    22    1
    64     1     7    1
    65     5     6    1
    66   116   118    1
    67   116   115    2
    68   127   128   ar
    69   127   125   ar
    70   165   166    1
    71   128   126   ar
    72   182   189   am
    73   182   183    2
    74   189   190    1
    75     6     7    1
    76   114   115    1
    77   114   113    2
    78   106   105    2
    79   125   124   ar
    80   126   124   ar
    81    64    63    1
    82   195   193    1
    83   190   191    1
    84   190   193    1
    85   113   112    1
    86   124   123    1
    87   105   107   am
    88   105   104    1
    89   191   192    2
    90   194   193    1
    91    44    43    2
    92    69    66    1
    93    63    60    1
    94    56    57    1
    95    56    55    1
    96    77    75    1
    97    47    46    1
    98    47    48    1
    99    59    57   am
   100    59    60    1
   101    76    75    1
   102   104   103    1
   103    46    43   am
   104    49    48    2
   105    43    42    1
   106    74    75    1
   107    74    71    1
   108   141   140   ar
   109   112   109    1
   110    57    58    2
   111   123   120    1
   112    60    61    1
   113    70    71    1
   114    70    67   am
   115    97    96   ar
   116    48    50   am
   117    55    52   am
   118    98    96   ar
   119    66    67    1
   120    66    65    1
   121    71    72    1
   122   142   140   ar
   123    67    68    2
   124   140   139    1
   125    96    95    1
   126   120   119    1
   127   120   121    1
   128    53    52    2
   129    52    51    1
   130   103   100    1
   131   109   108    1
   132   109   110    1
   133    61    62    2
   134    42    45    1
   135    42    41    1
   136   108   101   am
   137    50    51    1
   138    41    34   am
   139    40    38   ar
   140   139   136    1
   141   101   100    1
   142   101   102    2
   143    51    54    1
   144    72    73    2
   145   150   148    1
   146    99   100    1
   147    99    92   am
   148   121   122    2
   149    95    94    1
   150   110   111    2
   151    37    38    1
   152    37    36    1
   153   136   137    1
   154   136   135    1
   155   147   148    1
   156   147   144    1
   157   143   137   am
   158   143   144    1
   159    38    39   ar
   160   148   149    1
   161    81    80    2
   162    34    33    1
   163    34    35    2
   164    91    92    1
   165    91    94    1
   166    91    90    1
   167    92    93    2
   168   137   138    2
   169   144   145    1
   170   145   146    2
   171    33    36    1
   172    33    32    1
   173   135   131   am
   174    80    90   am
   175    80    79    1
   176   132   131    2
   177   131   130    1
   178    82    79    1
   179    82    83    1
   180    79    78    1
   181   130   129    1
   182   130   133    1
   183    83    84   ar
   184    83    85   ar
   185    84    86   ar
   186    85    87   ar
   187   133   134    1
   188    86    88   ar
   189    87    88   ar
   190    88    89    1
