@<TRIPOS>MOLECULE
tmp/1i9jB00.pdb
 83 78 0 0 0
SMALL
GASTEIGER

@<TRIPOS>ATOM
      1  N         27.3200    9.7720   44.5200 N.3    33  ALA33      -0.1245
      2  CA        27.3240   11.2320   44.4570 C.3    33  ALA33       0.1562
      3  C         27.4730   11.7840   45.8710 C.2    33  ALA33       0.2260
      4  O         26.7660   11.3800   46.7940 O.2    33  ALA33      -0.2867
      5  CB        26.0430   11.7370   43.8400 C.3    33  ALA33       0.0290
      6  N         27.6560   15.3020   48.3080 N.3    35  SER35      -0.1217
      7  CA        27.2040   16.6980   48.3130 C.3    35  SER35       0.1889
      8  C         27.5700   17.4500   49.5830 C.2    35  SER35       0.2288
      9  O         28.0560   16.8700   50.5450 O.2    35  SER35      -0.2866
     10  CB        25.6800   16.7710   48.1790 C.3    35  SER35       0.2089
     11  OG        25.1870   15.8930   47.1980 O.3    35  SER35      -0.2183
     12  N         20.9750   23.0410   49.9510 N.3    47  TRP47      -0.1241
     13  CA        21.9550   22.3000   49.1600 C.3    47  TRP47       0.1605
     14  C         22.9920   23.2870   48.6550 C.2    47  TRP47       0.2264
     15  O         22.6420   24.3480   48.1440 O.2    47  TRP47      -0.2867
     16  CB        21.2560   21.6250   47.9820 C.3    47  TRP47       0.0550
     17  CG        22.1650   20.9900   46.9730 C.ar   47  TRP47       0.0003
     18  CD1       22.9320   19.8670   47.1350 C.ar   47  TRP47       0.0946
     19  CD2       22.3470   21.4080   45.6150 C.ar   47  TRP47       0.0152
     20  NE1       23.5720   19.5550   45.9550 N.ar   47  TRP47      -0.2442
     21  CE2       23.2300   20.4820   45.0070 C.ar   47  TRP47       0.0810
     22  CE3       21.8440   22.4710   44.8490 C.ar   47  TRP47       0.0012
     23  CZ2       23.6170   20.5880   43.6690 C.ar   47  TRP47       0.0191
     24  CZ3       22.2320   22.5760   43.5110 C.ar   47  TRP47       0.0001
     25  CH2       23.1100   21.6360   42.9380 C.ar   47  TRP47       0.0015
     26  N         27.0960   19.3370   44.6590 N.3    50  SER50      -0.1217
     27  CA        27.1960   17.8890   44.5040 C.3    50  SER50       0.1889
     28  C         28.1660   17.5580   43.3760 C.2    50  SER50       0.2288
     29  O         28.3970   18.3610   42.4710 O.2    50  SER50      -0.2866
     30  CB        25.8390   17.2610   44.1470 C.3    50  SER50       0.2089
     31  OG        24.9040   17.3170   45.2050 O.3    50  SER50      -0.2183
     32  N         28.8200   14.0750   41.0220 N.3    52  VAL52      -0.1245
     33  CA        28.3580   12.7210   40.7570 C.3    52  VAL52       0.1561
     34  C         29.4730   11.7550   40.3880 C.2    52  VAL52       0.2260
     35  O         30.6240   12.1660   40.2270 O.2    52  VAL52      -0.2867
     36  CB        27.2660   12.7320   39.6690 C.3    52  VAL52       0.0252
     37  CG1       26.1300   13.6580   40.1080 C.3    52  VAL52       0.0019
     38  CG2       27.8420   13.1950   38.3370 C.3    52  VAL52       0.0019
     39  N         27.6360   20.1470   40.3480 N.3    58  TYR58      -0.1241
     40  CA        26.4670   20.9960   40.2400 C.3    58  TYR58       0.1605
     41  C         26.4160   21.9450   41.4270 C.2    58  TYR58       0.2264
     42  O         26.7680   21.5780   42.5520 O.2    58  TYR58      -0.2867
     43  CB        25.2010   20.1360   40.1570 C.3    58  TYR58       0.0534
     44  CG        25.2470   19.1310   39.0220 C.ar   58  TYR58      -0.0201
     45  CD1       25.8970   17.9130   39.1730 C.ar   58  TYR58      -0.0009
     46  CD2       24.6970   19.4280   37.7760 C.ar   58  TYR58      -0.0009
     47  CE1       26.0050   17.0190   38.1140 C.ar   58  TYR58       0.0417
     48  CE2       24.7980   18.5330   36.7050 C.ar   58  TYR58       0.0417
     49  CZ        25.4550   17.3340   36.8840 C.ar   58  TYR58       0.1957
     50  OH        25.5740   16.4500   35.8360 O.3    58  TYR58      -0.2866
     51  N         24.7000   10.0190   48.6210 N.3    98  GLU98      -0.1245
     52  CA        23.4010    9.6280   48.1070 C.3    98  GLU98       0.1567
     53  C         23.1710    8.1500   48.4220 C.2    98  GLU98       0.2260
     54  O         24.1110    7.4140   48.7400 O.2    98  GLU98      -0.2867
     55  CB        23.3610    9.8210   46.5980 C.3    98  GLU98       0.0388
     56  CG        24.1440    8.7690   45.8450 C.3    98  GLU98       0.1160
     57  CD        24.0130    8.9140   44.3500 C.2    98  GLU98       0.3649
     58  OE1       22.8880    9.1890   43.8940 O.co2  98  GLU98      -0.2457
     59  OE2       25.0230    8.7480   43.6330 O.co2  98  GLU98      -0.2457
     60  N         20.8180    9.2960   42.4360 N.3   102  TYR102     -0.1241
     61  CA        20.3030   10.6180   42.7860 C.3   102  TYR102      0.1605
     62  C         19.1190   10.5720   43.7340 C.2   102  TYR102      0.2264
     63  O         18.3010   11.4890   43.7580 O.2   102  TYR102     -0.2867
     64  CB        19.9100   11.3770   41.5170 C.3   102  TYR102      0.0534
     65  CG        21.0440   11.5750   40.5340 C.ar  102  TYR102     -0.0201
     66  CD1       20.8300   12.2110   39.3100 C.ar  102  TYR102     -0.0009
     67  CD2       22.3320   11.1170   40.8200 C.ar  102  TYR102     -0.0009
     68  CE1       21.8700   12.3830   38.3930 C.ar  102  TYR102      0.0417
     69  CE2       23.3740   11.2820   39.9140 C.ar  102  TYR102      0.0417
     70  CZ        23.1380   11.9130   38.7040 C.ar  102  TYR102      0.1957
     71  OH        24.1720   12.0540   37.8060 O.3   102  TYR102     -0.2866
     72  N         17.8000   10.5080   47.5860 N.3   104  GLY104     -0.1210
     73  CA        18.0850   10.7770   48.9850 C.3   104  GLY104      0.1956
     74  C         19.5030   11.0640   49.4400 C.2   104  GLY104      0.2611
     75  O         20.4790   10.7770   48.7530 O.2   104  GLY104     -0.2717
     76  N         19.5860   11.6790   50.6140 N.am  105  LEU105     -0.1979
     77  CA        20.8390   12.0030   51.2870 C.3   105  LEU105      0.1596
     78  C         20.8300   10.9750   52.4240 C.2   105  LEU105      0.2287
     79  O         20.3570   11.2430   53.5280 O.2   105  LEU105     -0.2864
     80  CB        20.7840   13.4320   51.8350 C.3   105  LEU105      0.0297
     81  CG        20.7210   14.5560   50.7890 C.3   105  LEU105      0.0022
     82  CD1       20.4500   15.8750   51.4680 C.3   105  LEU105      0.0001
     83  CD2       22.0320   14.6300   50.0130 C.3   105  LEU105      0.0001
@<TRIPOS>BOND
     1    50    49    1
     2    48    49   ar
     3    48    46   ar
     4    49    47   ar
     5    46    44   ar
     6    71    70    1
     7    47    45   ar
     8    38    36    1
     9    68    70   ar
    10    68    66   ar
    11    70    69   ar
    12    44    45   ar
    13    44    43    1
    14    66    65   ar
    15    36    37    1
    16    36    33    1
    17    69    67   ar
    18    43    40    1
    19    35    34    2
    20    40    39    1
    21    40    41    1
    22    34    33    1
    23    65    67   ar
    24    65    64    1
    25    33    32    1
    26    41    42    2
    27    64    61    1
    28    60    61    1
    29    29    28    2
    30    61    62    1
    31    25    24   ar
    32    25    23   ar
    33    28    27    1
    34    24    22   ar
    35    59    57   ar
    36    23    21   ar
    37    62    63    2
    38     5     2    1
    39    58    57   ar
    40    30    27    1
    41    30    31    1
    42    57    56    1
    43     2     1    1
    44     2     3    1
    45    27    26    1
    46    22    19   ar
    47    21    19   ar
    48    21    20   ar
    49    19    17   ar
    50    56    55    1
    51     3     4    2
    52    20    18   ar
    53    55    52    1
    54    17    18   ar
    55    17    16    1
    56    11    10    1
    57    72    73    1
    58    16    13    1
    59    52    53    1
    60    52    51    1
    61    15    14    2
    62    10     7    1
    63     6     7    1
    64     7     8    1
    65    53    54    2
    66    14    13    1
    67    75    74    2
    68    73    74    1
    69    13    12    1
    70    74    76   am
    71     8     9    2
    72    83    81    1
    73    76    77    1
    74    81    82    1
    75    81    80    1
    76    77    80    1
    77    77    78    1
    78    78    79    2
