@<TRIPOS>MOLECULE
tmp/1i9lA00.pdb
 126 122 0 0 0
SMALL
GASTEIGER

@<TRIPOS>ATOM
      1  N        -12.9120    5.7980   11.4540 N.3    90  GLN90      -0.1245
      2  CA       -12.6180    4.6220   10.6310 C.3    90  GLN90       0.1566
      3  C        -12.7170    3.3210   11.4000 C.2    90  GLN90       0.2260
      4  O        -12.7210    3.3180   12.6300 O.2    90  GLN90      -0.2867
      5  CB       -11.2090    4.7080   10.0170 C.3    90  GLN90       0.0367
      6  CG       -10.0420    4.8440   11.0280 C.3    90  GLN90       0.0905
      7  CD        -9.3430    3.5160   11.4050 C.2    90  GLN90       0.2608
      8  OE1       -9.9490    2.4410   11.4080 O.2    90  GLN90      -0.2717
      9  NE2       -8.0580    3.6030   11.7300 N.am   90  GLN90      -0.0878
     10  N        -11.3930   -0.9980   11.1620 N.3    92  HIS92      -0.1241
     11  CA       -10.4940   -2.0080   10.6160 C.3    92  HIS92       0.1621
     12  C        -10.5880   -3.2830   11.4610 C.2    92  HIS92       0.2264
     13  O        -11.1830   -3.2920   12.5500 O.2    92  HIS92      -0.2867
     14  CB        -9.0540   -1.5140   10.6560 C.3    92  HIS92       0.0745
     15  CG        -8.5790   -1.1370   12.0290 C.ar   92  HIS92       0.0817
     16  ND1       -8.7540    0.1060   12.5980 N.ar   92  HIS92      -0.2268
     17  CD2       -7.8890   -1.8620   12.9460 C.ar   92  HIS92       0.1154
     18  CE1       -8.1770    0.1020   13.8080 C.ar   92  HIS92       0.1986
     19  NE2       -7.6350   -1.0710   14.0710 N.ar   92  HIS92      -0.2212
     20  N         -8.3320   -7.1140   12.6120 N.3    94  HIS94      -0.1241
     21  CA        -7.0390   -7.7500   12.8870 C.3    94  HIS94       0.1621
     22  C         -7.4820   -9.2240   12.7650 C.2    94  HIS94       0.2264
     23  O         -8.5850   -9.5790   13.2100 O.2    94  HIS94      -0.2867
     24  CB        -6.5440   -7.4340   14.3150 C.3    94  HIS94       0.0745
     25  CG        -6.2940   -5.9730   14.5740 C.ar   94  HIS94       0.0817
     26  ND1       -5.0770   -5.3530   14.4130 N.ar   94  HIS94      -0.2268
     27  CD2       -7.1380   -4.9970   15.0030 C.ar   94  HIS94       0.1154
     28  CE1       -5.2100   -4.0490   14.7430 C.ar   94  HIS94       0.1986
     29  NE2       -6.4420   -3.7500   15.1160 N.ar   94  HIS94      -0.2212
     30  N        -12.3300   -3.1230   15.1250 N.3   117  HIS117     -0.1241
     31  CA       -12.0350   -1.9000   15.8650 C.3   117  HIS117      0.1621
     32  C        -12.7000   -0.6980   15.1980 C.2   117  HIS117      0.2264
     33  O        -12.3550   -0.3370   14.0580 O.2   117  HIS117     -0.2867
     34  CB       -10.5250   -1.6290   15.8900 C.3   117  HIS117      0.0745
     35  CG        -9.7330   -2.6120   16.6930 C.ar  117  HIS117      0.0817
     36  ND1       -8.3570   -2.6960   16.5840 N.ar  117  HIS117     -0.2268
     37  CD2      -10.1650   -3.4820   17.6450 C.ar  117  HIS117      0.1154
     38  CE1       -7.9940   -3.6060   17.4720 C.ar  117  HIS117      0.1986
     39  NE2       -9.0490   -4.1080   18.1340 N.ar  117  HIS117     -0.2212
     40  N        -12.9450    3.0370   15.4590 N.3   119  VAL119     -0.1245
     41  CA       -12.1760    4.1220   16.0530 C.3   119  VAL119      0.1561
     42  C        -12.8930    5.4690   16.0970 C.2   119  VAL119      0.2260
     43  O        -13.3620    5.9580   15.0580 O.2   119  VAL119     -0.2867
     44  CB       -10.8030    4.2610   15.3140 C.3   119  VAL119      0.0252
     45  CG1       -9.8760    5.2130   16.0540 C.3   119  VAL119      0.0019
     46  CG2      -10.1430    2.9050   15.1660 C.3   119  VAL119      0.0019
     47  N         -4.8660   12.7490   19.9180 N.3   132  VAL132     -0.1245
     48  CA        -3.7560   11.8280   20.2340 C.3   132  VAL132      0.1561
     49  C         -2.7060   12.3990   21.2060 C.2   132  VAL132      0.2260
     50  O         -1.6610   11.7880   21.4430 O.2   132  VAL132     -0.2867
     51  CB        -3.0430   11.2290   18.9510 C.3   132  VAL132      0.0252
     52  CG1       -4.0260   10.4230   18.1200 C.3   132  VAL132      0.0019
     53  CG2       -2.4100   12.3220   18.1120 C.3   132  VAL132      0.0019
     54  N         -9.1240    9.1400   22.5990 N.3   138  LEU138     -0.1245
     55  CA        -9.7650    8.1820   21.7130 C.3   138  LEU138      0.1561
     56  C        -10.6000    7.1590   22.4350 C.2   138  LEU138      0.2260
     57  O        -10.4300    6.9360   23.6220 O.2   138  LEU138     -0.2867
     58  CB        -8.7170    7.4360   20.8950 C.3   138  LEU138      0.0270
     59  CG        -7.7810    8.2700   20.0280 C.3   138  LEU138      0.0019
     60  CD1       -6.6760    7.3910   19.4720 C.3   138  LEU138      0.0001
     61  CD2       -8.5680    8.9450   18.9090 C.3   138  LEU138      0.0001
     62  N        -12.0800    3.2530   21.2720 N.3   140  VAL140     -0.1245
     63  CA       -12.2130    2.2040   20.2620 C.3   140  VAL140      0.1561
     64  C        -13.2030    1.1610   20.7680 C.2   140  VAL140      0.2260
     65  O        -13.1330    0.7230   21.9190 O.2   140  VAL140     -0.2867
     66  CB       -10.8620    1.5160   19.9320 C.3   140  VAL140      0.0252
     67  CG1      -11.0610    0.4290   18.8710 C.3   140  VAL140      0.0019
     68  CG2       -9.8550    2.5360   19.4740 C.3   140  VAL140      0.0019
     69  N         -3.0730    2.5340   21.6210 N.3   195  LEU195     -0.1231
     70  CA        -3.2010    2.0880   20.2250 C.3   195  LEU195      0.1693
     71  C         -2.4210    0.7530   20.2300 C.2   195  LEU195      0.2593
     72  O         -1.4340    0.6210   20.9800 O.2   195  LEU195     -0.2718
     73  CB        -2.5120    3.0740   19.2570 C.3   195  LEU195      0.0284
     74  CG        -3.1100    4.4830   19.1550 C.3   195  LEU195      0.0019
     75  CD1       -2.2530    5.3760   18.2700 C.3   195  LEU195      0.0001
     76  CD2       -4.5320    4.3990   18.6140 C.3   195  LEU195      0.0001
     77  N         -2.8330   -0.2170   19.4160 N.am  196  THR196     -0.1939
     78  CA        -2.1470   -1.5070   19.4010 C.3   196  THR196      0.2028
     79  C         -1.0980   -1.6780   18.3000 C.2   196  THR196      0.2643
     80  O         -0.5910   -2.7830   18.0850 O.2   196  THR196     -0.2714
     81  CB        -3.1430   -2.6730   19.3650 C.3   196  THR196      0.1808
     82  OG1       -3.8570   -2.6530   18.1280 O.3   196  THR196     -0.2208
     83  CG2       -4.1220   -2.5670   20.5140 C.3   196  THR196      0.0379
     84  N         -0.7880   -0.5740   17.6140 N.am  197  THR197     -0.1937
     85  CA         0.2160   -0.5320   16.5520 C.3   197  THR197      0.2013
     86  C          0.9910    0.7860   16.7320 C.2   197  THR197      0.2484
     87  O          0.5080    1.7170   17.4070 O.2   197  THR197     -0.2729
     88  CB        -0.4410   -0.5200   15.1210 C.3   197  THR197      0.1807
     89  OG1       -1.2640    0.6420   14.9770 O.3   197  THR197     -0.2208
     90  CG2       -1.3000   -1.7440   14.8950 C.3   197  THR197      0.0379
     91  N          2.2160    0.8710   16.1700 N.am  198  PRO198     -0.2715
     92  CA         2.9770    2.1080   16.3060 C.3   198  PRO198      0.1521
     93  C          2.0810    3.2310   15.7970 C.2   198  PRO198      0.2440
     94  O          1.3120    3.0370   14.8440 O.2   198  PRO198     -0.2731
     95  CB         4.1650    1.8600   15.3870 C.3   198  PRO198      0.0310
     96  CG         4.4150    0.4330   15.5760 C.3   198  PRO198      0.0237
     97  CD         3.0280   -0.1550   15.4920 C.3   198  PRO198      0.0939
     98  N          2.1770    4.4220   16.4050 N.am  199  PRO199     -0.2727
     99  CA         3.0550    4.8050   17.5180 C.3   199  PRO199      0.1402
    100  C          2.6800    4.3760   18.9680 C.2   199  PRO199      0.2269
    101  O          3.3270    4.8230   19.9220 O.2   199  PRO199     -0.2865
    102  CB         3.1250    6.3260   17.3650 C.3   199  PRO199      0.0296
    103  CG         1.7470    6.6570   16.9080 C.3   199  PRO199      0.0237
    104  CD         1.4500    5.5970   15.8850 C.3   199  PRO199      0.0939
    105  N          0.3400    5.1980   21.1470 N.3   201  LEU201     -0.1245
    106  CA         0.0010    6.2540   22.1090 C.3   201  LEU201      0.1561
    107  C         -1.0650    5.7970   23.1370 C.2   201  LEU201      0.2260
    108  O         -2.0910    5.2300   22.7720 O.2   201  LEU201     -0.2867
    109  CB        -0.4770    7.5050   21.3570 C.3   201  LEU201      0.0270
    110  CG         0.4430    7.9520   20.2060 C.3   201  LEU201      0.0019
    111  CD1       -0.1980    9.0980   19.4320 C.3   201  LEU201      0.0001
    112  CD2        1.7980    8.3820   20.7360 C.3   201  LEU201      0.0001
    113  N        -10.7660    1.8170   26.1030 N.3   206  TRP206     -0.1241
    114  CA       -11.2210    0.6220   25.4190 C.3   206  TRP206      0.1605
    115  C        -12.5820    0.1420   25.9300 C.2   206  TRP206      0.2264
    116  O        -12.8190    0.1030   27.1450 O.2   206  TRP206     -0.2867
    117  CB       -10.1680   -0.4950   25.5460 C.3   206  TRP206      0.0550
    118  CG        -9.0330   -0.3710   24.5620 C.ar  206  TRP206      0.0003
    119  CD1       -7.8090    0.1920   24.7790 C.ar  206  TRP206      0.0946
    120  CD2       -9.0290   -0.8250   23.1920 C.ar  206  TRP206      0.0152
    121  NE1       -7.0390    0.1210   23.6320 N.ar  206  TRP206     -0.2442
    122  CE2       -7.7580   -0.5000   22.6460 C.ar  206  TRP206      0.0810
    123  CE3       -9.9750   -1.4800   22.3760 C.ar  206  TRP206      0.0012
    124  CZ2       -7.4090   -0.8060   21.3200 C.ar  206  TRP206      0.0191
    125  CZ3       -9.6260   -1.7870   21.0500 C.ar  206  TRP206      0.0001
    126  CH2       -8.3550   -1.4480   20.5410 C.ar  206  TRP206      0.0015
@<TRIPOS>BOND
     1     5     2    1
     2     5     6    1
     3    11    14    1
     4    11    10    1
     5    11    12    1
     6     2     3    1
     7     2     1    1
     8    14    15    1
     9     6     7    1
    10     3     4    2
    11     7     8    2
    12     7     9   am
    13    12    13    2
    14    15    16   ar
    15    15    17   ar
    16    16    18   ar
    17    20    21    1
    18    22    21    1
    19    22    23    2
    20    21    24    1
    21    17    19   ar
    22    18    19   ar
    23    33    32    2
    24    24    25    1
    25    26    25   ar
    26    26    28   ar
    27    25    27   ar
    28    28    29   ar
    29    94    93    2
    30    90    88    1
    31    89    88    1
    32    27    29   ar
    33    43    42    2
    34    88    85    1
    35    30    31    1
    36    46    44    1
    37    32    31    1
    38    44    41    1
    39    44    45    1
    40    95    96    1
    41    95    92    1
    42    40    41    1
    43    97    96    1
    44    97    91    1
    45    93    92    1
    46    93    98   am
    47    31    34    1
    48   104    98    1
    49   104   103    1
    50    34    35    1
    51    41    42    1
    52    91    92    1
    53    91    86   am
    54    98    99    1
    55    85    86    1
    56    85    84    1
    57    36    35   ar
    58    36    38   ar
    59    35    37   ar
    60    86    87    2
    61   103   102    1
    62   102    99    1
    63    38    39   ar
    64    99   100    1
    65    84    79   am
    66    37    39   ar
    67    80    79    2
    68    53    51    1
    69    52    51    1
    70    82    81    1
    71    75    74    1
    72    79    78    1
    73    76    74    1
    74    67    66    1
    75    61    59    1
    76    51    48    1
    77   100   101    2
    78    74    73    1
    79    73    70    1
    80    81    78    1
    81    81    83    1
    82    78    77    1
    83    77    71   am
    84   111   110    1
    85    60    59    1
    86    68    66    1
    87    47    48    1
    88    66    63    1
    89    59    58    1
    90   110   112    1
    91   110   109    1
    92    70    71    1
    93    70    69    1
    94    71    72    2
    95    48    49    1
    96    63    64    1
    97    63    62    1
    98   126   125   ar
    99   126   124   ar
   100    64    65    2
   101    58    55    1
   102   125   123   ar
   103   105   106    1
   104    49    50    2
   105   124   122   ar
   106   109   106    1
   107    55    56    1
   108    55    54    1
   109   106   107    1
   110   123   120   ar
   111    56    57    2
   112   122   120   ar
   113   122   121   ar
   114   108   107    2
   115   120   118   ar
   116   121   119   ar
   117   118   119   ar
   118   118   117    1
   119   114   117    1
   120   114   115    1
   121   114   113    1
   122   115   116    2
