@<TRIPOS>MOLECULE
tmp/1i9lA01.pdb
 101 95 0 0 0
SMALL
GASTEIGER

@<TRIPOS>ATOM
      1  N        -16.7050    6.7580    3.0560 N.3    55  LEU55      -0.1245
      2  CA       -16.2000    7.3750    1.8380 C.3    55  LEU55       0.1561
      3  C        -15.2560    6.5410    1.0080 C.2    55  LEU55       0.2260
      4  O        -15.3650    6.5050   -0.2190 O.2    55  LEU55      -0.2867
      5  CB       -15.4470    8.6560    2.1830 C.3    55  LEU55       0.0270
      6  CG       -16.1500    9.7500    2.9850 C.3    55  LEU55       0.0019
      7  CD1      -15.1000   10.7080    3.5560 C.3    55  LEU55       0.0001
      8  CD2      -17.1690   10.4620    2.0980 C.3    55  LEU55       0.0001
      9  N         -8.5830   -0.1120    5.9070 N.3    65  ASN65      -0.1240
     10  CA        -9.4570    0.8060    6.6280 C.3    65  ASN65       0.1653
     11  C        -10.6410    1.3200    5.8110 C.2    65  ASN65       0.2266
     12  O        -10.4760    1.6690    4.6440 O.2    65  ASN65      -0.2867
     13  CB        -8.6730    2.0500    7.0640 C.3    65  ASN65       0.1155
     14  CG        -7.5440    1.7560    8.0460 C.2    65  ASN65       0.2627
     15  OD1       -6.7730    2.6580    8.3680 O.2    65  ASN65      -0.2716
     16  ND2       -7.4480    0.5320    8.5340 N.am   65  ASN65      -0.0877
     17  N        -12.9000    4.4030    5.7310 N.3    67  GLU67      -0.1231
     18  CA       -12.9070    5.7540    6.2860 C.3    67  GLU67       0.1699
     19  C        -14.2720    6.4340    6.2440 C.2    67  GLU67       0.2592
     20  O        -15.0570    6.2130    5.3050 O.2    67  GLU67      -0.2718
     21  CB       -11.8920    6.6230    5.5530 C.3    67  GLU67       0.0402
     22  CG       -10.5290    6.0070    5.4770 C.3    67  GLU67       0.1161
     23  CD        -9.6080    6.7380    4.5360 C.2    67  GLU67       0.3649
     24  OE1      -10.0990    7.3860    3.5960 O.co2  67  GLU67      -0.2457
     25  OE2       -8.3860    6.6450    4.7270 O.co2  67  GLU67      -0.2457
     26  N        -14.5100    7.3190    7.2150 N.am   68  PHE68      -0.1962
     27  CA       -15.7750    8.0590    7.3300 C.3    68  PHE68       0.1771
     28  C        -15.6080    9.5770    7.3710 C.2    68  PHE68       0.2620
     29  O        -14.5660   10.0840    7.7660 O.2    68  PHE68      -0.2715
     30  CB       -16.5260    7.6250    8.5920 C.3    68  PHE68       0.0574
     31  CG       -17.0330    6.2170    8.5350 C.ar   68  PHE68      -0.0200
     32  CD1      -16.1780    5.1460    8.8060 C.ar   68  PHE68      -0.0042
     33  CD2      -18.3580    5.9590    8.1980 C.ar   68  PHE68      -0.0042
     34  CE1      -16.6250    3.8340    8.7470 C.ar   68  PHE68      -0.0003
     35  CE2      -18.8230    4.6490    8.1330 C.ar   68  PHE68      -0.0003
     36  CZ       -17.9510    3.5760    8.4100 C.ar   68  PHE68      -0.0000
     37  N        -16.6450   10.2840    6.9390 N.am   69  ASP69      -0.1957
     38  CA       -16.6850   11.7470    6.9480 C.3    69  ASP69       0.1840
     39  C        -16.9370   12.1690    8.4190 C.2    69  ASP69       0.2622
     40  O        -18.0460   12.0330    8.9260 O.2    69  ASP69      -0.2715
     41  CB       -17.8270   12.2170    6.0070 C.3    69  ASP69       0.1450
     42  CG       -18.1680   13.7260    6.1280 C.2    69  ASP69       0.3671
     43  OD1      -17.5660   14.4690    6.9340 O.co2  69  ASP69      -0.2456
     44  OD2      -19.0910   14.1720    5.4020 O.co2  69  ASP69      -0.2456
     45  N        -15.9160   12.7080    9.0750 N.am   70  ASP70      -0.1957
     46  CA       -16.0370   13.1390   10.4730 C.3    70  ASP70       0.1840
     47  C        -15.9940   14.6740   10.6440 C.2    70  ASP70       0.2622
     48  O        -15.4640   15.1980   11.6340 O.2    70  ASP70      -0.2715
     49  CB       -14.9270   12.4820   11.3050 C.3    70  ASP70       0.1450
     50  CG       -13.5390   12.9980   10.9450 C.2    70  ASP70       0.3671
     51  OD1      -13.3910   13.7440    9.9430 O.co2  70  ASP70      -0.2456
     52  OD2      -12.5860   12.6830   11.6910 O.co2  70  ASP70      -0.2456
     53  N        -16.4970   15.3850    9.6440 N.am   71  SER71      -0.1950
     54  CA       -16.5140   16.8470    9.6820 C.3    71  SER71       0.1924
     55  C        -17.6630   17.3310   10.5680 C.2    71  SER71       0.2314
     56  O        -17.6510   18.4710   11.0250 O.2    71  SER71      -0.2863
     57  CB       -16.6620   17.4250    8.2690 C.3    71  SER71       0.2116
     58  OG       -17.9200   17.0750    7.6960 O.3    71  SER71      -0.2180
     59  N        -14.2520    7.7440   12.9810 N.3    89  ILE89      -0.1231
     60  CA       -13.4110    8.1650   11.8690 C.3    89  ILE89       0.1692
     61  C        -13.0890    7.0010   10.9070 C.2    89  ILE89       0.2591
     62  O        -13.0250    7.1900    9.6800 O.2    89  ILE89      -0.2718
     63  CB       -12.1340    8.9020   12.3720 C.3    89  ILE89       0.0266
     64  CG1      -11.2890    9.3670   11.1820 C.3    89  ILE89       0.0019
     65  CG2      -11.3390    8.0360   13.3340 C.3    89  ILE89       0.0020
     66  CD1      -10.3080   10.4440   11.5250 C.3    89  ILE89       0.0001
     67  N        -12.9120    5.7980   11.4540 N.am   90  GLN90      -0.1979
     68  CA       -12.6180    4.6220   10.6310 C.3    90  GLN90       0.1601
     69  C        -12.7170    3.3210   11.4000 C.2    90  GLN90       0.2287
     70  O        -12.7210    3.3180   12.6300 O.2    90  GLN90      -0.2864
     71  CB       -11.2090    4.7080   10.0170 C.3    90  GLN90       0.0394
     72  CG       -10.0420    4.8440   11.0280 C.3    90  GLN90       0.0908
     73  CD        -9.3430    3.5160   11.4050 C.2    90  GLN90       0.2608
     74  OE1       -9.9490    2.4410   11.4080 O.2    90  GLN90      -0.2717
     75  NE2       -8.0580    3.6030   11.7300 N.am   90  GLN90      -0.0878
     76  N         -8.3740   14.9470   15.1350 N.3   128  VAL128     -0.1231
     77  CA        -7.6830   13.7390   15.5990 C.3   128  VAL128      0.1692
     78  C         -6.2640   13.9330   16.0700 C.2   128  VAL128      0.2592
     79  O         -5.8280   13.2670   17.0090 O.2   128  VAL128     -0.2718
     80  CB        -7.6590   12.5640   14.5830 C.3   128  VAL128      0.0266
     81  CG1       -8.3420   11.3620   15.1980 C.3   128  VAL128      0.0020
     82  CG2       -8.2520   12.9290   13.2470 C.3   128  VAL128      0.0020
     83  N         -5.5320   14.8140   15.3960 N.am  129  GLY129     -0.1957
     84  CA        -4.1490   15.0890   15.7800 C.3   129  GLY129      0.1869
     85  C         -4.0330   15.6190   17.2070 C.2   129  GLY129      0.2309
     86  O         -3.0870   15.3130   17.9260 O.2   129  GLY129     -0.2863
     87  N         -4.8660   12.7490   19.9180 N.3   132  VAL132     -0.1245
     88  CA        -3.7560   11.8280   20.2340 C.3   132  VAL132      0.1561
     89  C         -2.7060   12.3990   21.2060 C.2   132  VAL132      0.2260
     90  O         -1.6610   11.7880   21.4430 O.2   132  VAL132     -0.2867
     91  CB        -3.0430   11.2290   18.9510 C.3   132  VAL132      0.0252
     92  CG1       -4.0260   10.4230   18.1200 C.3   132  VAL132      0.0019
     93  CG2       -2.4100   12.3220   18.1120 C.3   132  VAL132      0.0019
     94  N         -9.1240    9.1400   22.5990 N.3   138  LEU138     -0.1245
     95  CA        -9.7650    8.1820   21.7130 C.3   138  LEU138      0.1561
     96  C        -10.6000    7.1590   22.4350 C.2   138  LEU138      0.2260
     97  O        -10.4300    6.9360   23.6220 O.2   138  LEU138     -0.2867
     98  CB        -8.7170    7.4360   20.8950 C.3   138  LEU138      0.0270
     99  CG        -7.7810    8.2700   20.0280 C.3   138  LEU138      0.0019
    100  CD1       -6.6760    7.3910   19.4720 C.3   138  LEU138      0.0001
    101  CD2       -8.5680    8.9450   18.9090 C.3   138  LEU138      0.0001
@<TRIPOS>BOND
     1     4     3    2
     2     3     2    1
     3     2     5    1
     4     2     1    1
     5     8     6    1
     6     5     6    1
     7     6     7    1
     8    24    23   ar
     9    23    25   ar
    10    23    22    1
    11    12    11    2
    12    20    19    2
    13    44    42   ar
    14    22    21    1
    15    21    18    1
    16    17    18    1
    17    11    10    1
    18     9    10    1
    19    41    42    1
    20    41    38    1
    21    42    43   ar
    22    19    18    1
    23    19    26   am
    24    10    13    1
    25    37    38    1
    26    37    28   am
    27    38    39    1
    28    13    14    1
    29    26    27    1
    30    27    28    1
    31    27    30    1
    32    28    29    2
    33    58    57    1
    34    14    15    2
    35    14    16   am
    36    35    33   ar
    37    35    36   ar
    38    33    31   ar
    39    57    54    1
    40    36    34   ar
    41    39    40    2
    42    39    45   am
    43    31    30    1
    44    31    32   ar
    45    34    32   ar
    46    45    46    1
    47    53    54    1
    48    53    47   am
    49    62    61    2
    50    54    55    1
    51    51    50   ar
    52    71    68    1
    53    71    72    1
    54    46    47    1
    55    46    49    1
    56    55    56    2
    57    68    69    1
    58    68    67    1
    59    47    48    2
    60    61    67   am
    61    61    60    1
    62    50    49    1
    63    50    52   ar
    64    72    73    1
    65    64    66    1
    66    64    63    1
    67    69    70    2
    68    73    74    2
    69    73    75   am
    70    60    63    1
    71    60    59    1
    72    63    65    1
    73    82    80    1
    74    80    81    1
    75    80    77    1
    76    76    77    1
    77    83    84    1
    78    83    78   am
    79    77    78    1
    80    84    85    1
    81    78    79    2
    82    85    86    2
    83    93    91    1
    84    92    91    1
    85   101    99    1
    86    91    88    1
    87   100    99    1
    88    87    88    1
    89    99    98    1
    90    88    89    1
    91    98    95    1
    92    89    90    2
    93    95    96    1
    94    95    94    1
    95    96    97    2
