@<TRIPOS>MOLECULE
tmp/1i9zA00.pdb
 122 117 0 0 0
SMALL
GASTEIGER

@<TRIPOS>ATOM
      1  N         30.3150   25.5690   44.8730 N.3    64  GLU64      -0.1245
      2  CA        31.5440   25.8480   45.6330 C.3    64  GLU64       0.1567
      3  C         31.3790   25.8980   47.1550 C.2    64  GLU64       0.2260
      4  O         31.8750   26.8450   47.8220 O.2    64  GLU64      -0.2867
      5  CB        32.2730   27.1210   45.1430 C.3    64  GLU64       0.0388
      6  CG        32.5620   27.0170   43.6380 C.3    64  GLU64       0.1160
      7  CD        33.5800   28.0110   43.1690 C.2    64  GLU64       0.3649
      8  OE1       34.5180   28.3160   43.9520 O.co2  64  GLU64      -0.2457
      9  OE2       33.5300   28.4110   42.0000 O.co2  64  GLU64      -0.2457
     10  N         36.8230   26.2670   44.7940 N.3    68  LEU68      -0.1245
     11  CA        37.5980   25.5130   43.8090 C.3    68  LEU68       0.1561
     12  C         38.9880   26.1510   43.5210 C.2    68  LEU68       0.2260
     13  O         39.1200   27.3850   43.3840 O.2    68  LEU68      -0.2867
     14  CB        36.7830   25.3820   42.5110 C.3    68  LEU68       0.0270
     15  CG        35.4480   24.6480   42.6860 C.3    68  LEU68       0.0019
     16  CD1       34.7330   24.6390   41.3210 C.3    68  LEU68       0.0001
     17  CD2       35.6630   23.2110   43.1780 C.3    68  LEU68       0.0001
     18  N         34.1610   26.0670   33.5810 N.3   160  ALA160     -0.1231
     19  CA        34.5330   27.4920   33.6870 C.3   160  ALA160      0.1694
     20  C         35.3750   27.8410   32.4880 C.2   160  ALA160      0.2593
     21  O         35.9400   26.9410   31.8390 O.2   160  ALA160     -0.2718
     22  CB        35.3610   27.7370   34.9660 C.3   160  ALA160      0.0304
     23  N         35.4620   29.1270   32.1890 N.am  161  GLY161     -0.1942
     24  CA        36.3010   29.5350   31.0740 C.3   161  GLY161      0.2014
     25  C         35.5810   30.6130   30.2890 C.2   161  GLY161      0.2639
     26  O         34.3450   30.6370   30.2120 O.2   161  GLY161     -0.2714
     27  N         36.3550   31.5430   29.7530 N.am  162  TYR162     -0.1959
     28  CA        35.7760   32.6250   28.9790 C.3   162  TYR162      0.1771
     29  C         35.1820   32.2080   27.6280 C.2   162  TYR162      0.2620
     30  O         34.0070   32.4340   27.3380 O.2   162  TYR162     -0.2715
     31  CB        36.8480   33.6800   28.7490 C.3   162  TYR162      0.0574
     32  CG        36.3360   34.8650   27.9750 C.ar  162  TYR162     -0.0198
     33  CD1       35.3140   35.6440   28.4680 C.ar  162  TYR162     -0.0009
     34  CD2       36.9120   35.2180   26.7430 C.ar  162  TYR162     -0.0009
     35  CE1       34.8500   36.7740   27.7760 C.ar  162  TYR162      0.0417
     36  CE2       36.4620   36.3400   26.0300 C.ar  162  TYR162      0.0417
     37  CZ        35.4250   37.1200   26.5800 C.ar  162  TYR162      0.1957
     38  OH        35.0700   38.3030   25.9520 O.3   162  TYR162     -0.2866
     39  N         35.9770   31.5580   26.8050 N.am  163  THR163     -0.1937
     40  CA        35.4950   31.1920   25.4700 C.3   163  THR163      0.2028
     41  C         34.9290   29.7730   25.2860 C.2   163  THR163      0.2642
     42  O         34.3460   29.4760   24.2500 O.2   163  THR163     -0.2714
     43  CB        36.6310   31.2990   24.4350 C.3   163  THR163      0.1808
     44  OG1       37.5650   30.2580   24.7170 O.3   163  THR163     -0.2208
     45  CG2       37.3500   32.6550   24.5200 C.3   163  THR163      0.0379
     46  N         35.0800   28.9040   26.2810 N.am  164  ASN164     -0.1971
     47  CA        34.6750   27.5200   26.0590 C.3   164  ASN164      0.1688
     48  C         33.2380   27.1710   26.2590 C.2   164  ASN164      0.2292
     49  O         32.8930   26.2630   27.0670 O.2   164  ASN164     -0.2864
     50  CB        35.5400   26.5930   26.8930 C.3   164  ASN164      0.1181
     51  CG        35.4160   26.8680   28.2900 C.2   164  ASN164      0.2629
     52  OD1       35.4170   28.0470   28.7020 O.2   164  ASN164     -0.2716
     53  ND2       35.3300   25.8020   29.1040 N.am  164  ASN164     -0.0877
     54  N         28.0060   29.1330   34.0670 N.3   200  ASN200     -0.1240
     55  CA        29.2830   29.6520   33.6190 C.3   200  ASN200      0.1653
     56  C         29.3590   30.2880   32.2540 C.2   200  ASN200      0.2266
     57  O         30.4460   30.6320   31.8170 O.2   200  ASN200     -0.2867
     58  CB        30.4220   28.5980   33.7500 C.3   200  ASN200      0.1155
     59  CG        31.4310   28.9210   34.9160 C.2   200  ASN200      0.2627
     60  OD1       31.8130   30.0660   35.1150 O.2   200  ASN200     -0.2716
     61  ND2       31.8170   27.8840   35.7050 N.am  200  ASN200     -0.0877
     62  N         29.2400   33.1420   29.5060 N.3   202  ARG202     -0.1245
     63  CA        29.8250   34.5050   29.6310 C.3   202  ARG202      0.1563
     64  C         29.3050   35.5220   28.6030 C.2   202  ARG202      0.2260
     65  O         28.5050   35.1840   27.6910 O.2   202  ARG202     -0.2867
     66  CB        31.3580   34.4130   29.4880 C.3   202  ARG202      0.0307
     67  CG        32.0520   33.3660   30.4130 C.3   202  ARG202      0.0489
     68  CD        31.7540   33.6280   31.9000 C.3   202  ARG202      0.2205
     69  NE        32.3220   32.5590   32.7310 N.pl3 202  ARG202     -0.0865
     70  CZ        33.5740   32.5660   33.2030 C.cat 202  ARG202      0.5346
     71  NH1       34.3780   33.5980   32.9300 N.pl3 202  ARG202      0.1354
     72  NH2       34.0380   31.5030   33.8920 N.pl3 202  ARG202      0.1354
     73  N         28.6030   38.0800   38.3030 N.3   252  TYR252     -0.1227
     74  CA        29.9310   37.6400   38.3980 C.3   252  TYR252      0.1736
     75  C         30.8030   38.6100   37.6560 C.2   252  TYR252      0.2595
     76  O         30.4470   39.1970   36.6200 O.2   252  TYR252     -0.2718
     77  CB        30.1140   36.2470   37.7430 C.3   252  TYR252      0.0548
     78  CG        31.5360   35.7720   37.6020 C.ar  252  TYR252     -0.0200
     79  CD1       32.1760   35.1210   38.6680 C.ar  252  TYR252     -0.0009
     80  CD2       32.2270   35.8800   36.3640 C.ar  252  TYR252     -0.0009
     81  CE1       33.4710   34.5490   38.5160 C.ar  252  TYR252      0.0417
     82  CE2       33.5380   35.3290   36.2230 C.ar  252  TYR252      0.0417
     83  CZ        34.1310   34.6680   37.2940 C.ar  252  TYR252      0.1957
     84  OH        35.3980   34.0930   37.1850 O.3   252  TYR252     -0.2866
     85  N         31.8170   38.5170   38.4910 N.am  253  LYS253     -0.1980
     86  CA        33.0510   38.6660   39.1340 C.3   253  LYS253      0.1596
     87  C         33.2470   39.8700   39.9870 C.2   253  LYS253      0.2287
     88  O         33.7630   40.7980   39.5320 O.2   253  LYS253     -0.2864
     89  CB        34.1790   38.3650   38.2210 C.3   253  LYS253      0.0298
     90  CG        35.3250   38.4750   38.9560 C.3   253  LYS253      0.0038
     91  CD        35.3370   37.4360   39.9540 C.3   253  LYS253      0.0206
     92  CE        36.5900   36.6580   39.5180 C.3   253  LYS253      0.1093
     93  NZ        37.4060   36.3870   40.7770 N.3   253  LYS253     -0.1314
     94  N         38.6470   39.4980   35.2570 N.3   268  ARG268     -0.1245
     95  CA        37.6150   38.6490   34.6970 C.3   268  ARG268      0.1563
     96  C         36.4910   39.5010   34.1610 C.2   268  ARG268      0.2260
     97  O         35.9630   40.3990   34.8540 O.2   268  ARG268     -0.2867
     98  CB        37.0830   37.7010   35.7460 C.3   268  ARG268      0.0307
     99  CG        38.1360   36.7810   36.3370 C.3   268  ARG268      0.0489
    100  CD        38.8870   35.9600   35.2950 C.3   268  ARG268      0.2205
    101  NE        39.7320   35.0060   36.0180 N.pl3 268  ARG268     -0.0865
    102  CZ        40.7520   34.3270   35.5030 C.cat 268  ARG268      0.5346
    103  NH1       41.0950   34.4820   34.2220 N.pl3 268  ARG268      0.1354
    104  NH2       41.4280   33.4770   36.2800 N.pl3 268  ARG268      0.1354
    105  N         32.3570   36.0420   45.4010 N.3   296  ASP296     -0.1225
    106  CA        32.6490   36.8500   44.2170 C.3   296  ASP296      0.1805
    107  C         31.4430   36.7480   43.2510 C.2   296  ASP296      0.2597
    108  O         31.4190   37.3880   42.2050 O.2   296  ASP296     -0.2718
    109  CB        33.9610   36.4260   43.5510 C.3   296  ASP296      0.1424
    110  CG        34.0270   34.9400   43.2560 C.2   296  ASP296      0.3668
    111  OD1       33.1360   34.1150   43.5990 O.co2 296  ASP296     -0.2456
    112  OD2       35.0430   34.6240   42.6290 O.co2 296  ASP296     -0.2456
    113  N         30.4260   35.9680   43.6000 N.am  297  HIS297     -0.1975
    114  CA        29.1660   35.9670   42.8320 C.3   297  HIS297      0.1656
    115  C         28.0500   36.5270   43.7000 C.2   297  HIS297      0.2291
    116  O         28.0890   36.4070   44.9380 O.2   297  HIS297     -0.2864
    117  CB        28.6470   34.5590   42.4930 C.3   297  HIS297      0.0771
    118  CG        29.4950   33.8190   41.5220 C.ar  297  HIS297      0.0820
    119  ND1       29.0070   33.3310   40.3210 N.ar  297  HIS297     -0.2267
    120  CD2       30.7750   33.4010   41.6110 C.ar  297  HIS297      0.1154
    121  CE1       29.9600   32.6290   39.7200 C.ar  297  HIS297      0.1986
    122  NE2       31.0460   32.6550   40.4870 N.ar  297  HIS297     -0.2212
@<TRIPOS>BOND
     1    42    41    2
     2    43    45    1
     3    43    44    1
     4    43    40    1
     5    41    40    1
     6    41    46   am
     7    40    39    1
     8    38    37    1
     9    36    37   ar
    10    36    34   ar
    11    47    48    1
    12    47    46    1
    13    47    50    1
    14    48    49    2
    15    37    35   ar
    16    34    32   ar
    17    39    29   am
    18    50    51    1
    19    30    29    2
    20    29    28    1
    21    65    64    2
    22    35    33   ar
    23    32    33   ar
    24    32    31    1
    25    51    52    2
    26    51    53   am
    27    64    63    1
    28    31    28    1
    29    28    27    1
    30    66    63    1
    31    66    67    1
    32    62    63    1
    33    27    25   am
    34    26    25    2
    35    25    24    1
    36    67    68    1
    37    24    23    1
    38    57    56    2
    39    21    20    2
    40    68    69    1
    41    23    20   am
    42    56    55    1
    43    20    19    1
    44    69    70    2
    45    71    70    1
    46    70    72    1
    47    18    19    1
    48    55    58    1
    49    55    54    1
    50    19    22    1
    51    58    59    1
    52    96    95    1
    53    96    97    2
    54   103   102    1
    55    95    94    1
    56    95    98    1
    57    59    60    2
    58    59    61   am
    59   100   101    1
    60   100    99    1
    61   102   101    2
    62   102   104    1
    63    98    99    1
    64    82    80   ar
    65    82    83   ar
    66    80    78   ar
    67    76    75    2
    68    84    83    1
    69    83    81   ar
    70    78    77    1
    71    78    79   ar
    72    75    74    1
    73    75    85   am
    74    77    74    1
    75    89    90    1
    76    89    86    1
    77    73    74    1
    78    85    86    1
    79    81    79   ar
    80    90    91    1
    81    86    87    1
    82    92    91    1
    83    92    93    1
    84    88    87    2
    85   121   119   ar
    86   121   122   ar
    87   119   118   ar
    88   122   120   ar
    89    16    15    1
    90   118   120   ar
    91   118   117    1
    92     9     7   ar
    93   108   107    2
    94   117   114    1
    95    14    15    1
    96    14    11    1
    97   112   110   ar
    98    15    17    1
    99   114   113    1
   100   114   115    1
   101     7     6    1
   102     7     8   ar
   103   107   113   am
   104   107   106    1
   105   110   109    1
   106   110   111   ar
   107    13    12    2
   108    12    11    1
   109   109   106    1
   110     6     5    1
   111   115   116    2
   112    11    10    1
   113   106   105    1
   114     1     2    1
   115     5     2    1
   116     2     3    1
   117     3     4    2
