@<TRIPOS>MOLECULE
tmp/1ia1A01.pdb
 124 117 0 0 0
SMALL
GASTEIGER

@<TRIPOS>ATOM
      1  N         25.4760    2.8200    4.8630 N.3     9  ILE9       -0.1231
      2  CA        25.6280    2.4250    3.4200 C.3     9  ILE9        0.1692
      3  C         25.5770    0.8980    3.4350 C.2     9  ILE9        0.2592
      4  O         26.3500    0.2600    4.1410 O.2     9  ILE9       -0.2718
      5  CB        26.8700    3.0220    2.7490 C.3     9  ILE9        0.0266
      6  CG1       26.9890    2.5130    1.2520 C.3     9  ILE9        0.0019
      7  CG2       28.1890    2.6570    3.4860 C.3     9  ILE9        0.0020
      8  CD1       27.8990    3.5390    0.4160 C.3     9  ILE9        0.0001
      9  N         24.6680    0.3610    2.5920 N.am   10  VAL10      -0.1966
     10  CA        24.4730   -1.1080    2.5250 C.3    10  VAL10       0.1727
     11  C         23.9490   -1.5200    1.1410 C.2    10  VAL10       0.2616
     12  O         23.3080   -0.6700    0.4660 O.2    10  VAL10      -0.2715
     13  CB        23.4590   -1.4950    3.6380 C.3    10  VAL10       0.0290
     14  CG1       22.0840   -0.7940    3.4200 C.3    10  VAL10       0.0023
     15  CG2       23.2370   -2.9890    3.7610 C.3    10  VAL10       0.0023
     16  N         24.1980   -2.7700    0.8130 N.am   11  ALA11      -0.1977
     17  CA        23.6030   -3.3630   -0.4470 C.3    11  ALA11       0.1597
     18  C         22.6320   -4.4600   -0.0280 C.2    11  ALA11       0.2287
     19  O         22.9870   -5.3360    0.7560 O.2    11  ALA11      -0.2864
     20  CB        24.7310   -3.8760   -1.3300 C.3    11  ALA11       0.0319
     21  N         28.9380  -11.9770    1.7940 N.3    25  MET25      -0.1245
     22  CA        27.8930  -11.3540    0.9340 C.3    25  MET25       0.1570
     23  C         27.5330  -12.4400   -0.0970 C.2    25  MET25       0.2261
     24  O         28.4020  -13.2030   -0.5630 O.2    25  MET25      -0.2867
     25  CB        28.2860  -10.0210    0.3310 C.3    25  MET25       0.0387
     26  CG        28.4450   -8.9660    1.3970 C.3    25  MET25       0.0595
     27  SD        29.2570   -7.4820    0.7430 S.3    25  MET25      -0.1393
     28  CE        27.9430   -6.8550   -0.3450 C.3    25  MET25       0.0692
     29  N         29.3620   -2.2470   -8.0210 N.3    32  GLU32      -0.1231
     30  CA        28.8070   -1.7720   -6.6750 C.3    32  GLU32       0.1699
     31  C         29.9260   -1.5850   -5.7080 C.2    32  GLU32       0.2592
     32  O         29.9200   -0.5720   -4.9740 O.2    32  GLU32      -0.2718
     33  CB        27.8410   -2.8400   -6.1770 C.3    32  GLU32       0.0402
     34  CG        26.6730   -2.3180   -5.2860 C.3    32  GLU32       0.1161
     35  CD        27.1000   -1.9230   -3.8980 C.2    32  GLU32       0.3649
     36  OE1       27.9720   -2.5520   -3.3430 O.co2  32  GLU32      -0.2457
     37  OE2       26.4840   -0.9470   -3.3740 O.co2  32  GLU32      -0.2457
     38  N         30.8830   -2.5250   -5.6840 N.am   33  ILE33      -0.1980
     39  CA        32.0480   -2.3910   -4.8510 C.3    33  ILE33       0.1595
     40  C         32.8000   -1.0940   -5.1790 C.2    33  ILE33       0.2287
     41  O         33.2680   -0.4440   -4.2560 O.2    33  ILE33      -0.2864
     42  CB        33.0720   -3.6190   -4.9800 C.3    33  ILE33       0.0276
     43  CG1       32.3770   -4.9180   -4.7300 C.3    33  ILE33       0.0022
     44  CG2       34.3420   -3.3720   -4.1210 C.3    33  ILE33       0.0022
     45  CD1       31.6570   -5.3350   -3.5170 C.3    33  ILE33       0.0001
     46  N         31.6030    1.7240   -6.4330 N.3    35  TYR35      -0.1227
     47  CA        30.7420    2.8220   -5.9320 C.3    35  TYR35       0.1736
     48  C         31.0010    2.9620   -4.4070 C.2    35  TYR35       0.2595
     49  O         31.1900    4.0840   -3.9350 O.2    35  TYR35      -0.2718
     50  CB        29.2680    2.4790   -6.1840 C.3    35  TYR35       0.0548
     51  CG        28.2370    3.2870   -5.4380 C.ar   35  TYR35      -0.0200
     52  CD1       27.6240    2.8430   -4.2450 C.ar   35  TYR35      -0.0009
     53  CD2       27.8810    4.5400   -5.9390 C.ar   35  TYR35      -0.0009
     54  CE1       26.6840    3.6640   -3.6030 C.ar   35  TYR35       0.0417
     55  CE2       26.9440    5.3390   -5.3160 C.ar   35  TYR35       0.0417
     56  CZ        26.3460    4.8820   -4.1470 C.ar   35  TYR35       0.1957
     57  OH        25.3890    5.7530   -3.6300 O.3    35  TYR35      -0.2866
     58  N         30.8870    1.8490   -3.7240 N.am   36  PHE36      -0.1976
     59  CA        31.1440    1.8380   -2.2310 C.3    36  PHE36       0.1639
     60  C         32.4590    2.5580   -1.9530 C.2    36  PHE36       0.2290
     61  O         32.5410    3.4320   -1.0560 O.2    36  PHE36      -0.2864
     62  CB        31.0090    0.4580   -1.6470 C.3    36  PHE36       0.0560
     63  CG        31.5680    0.3060   -0.2680 C.ar   36  PHE36      -0.0200
     64  CD1       32.8710   -0.2090   -0.1060 C.ar   36  PHE36      -0.0042
     65  CD2       30.8430    0.7840    0.8520 C.ar   36  PHE36      -0.0042
     66  CE1       33.4270   -0.3120    1.1650 C.ar   36  PHE36      -0.0003
     67  CE2       31.4060    0.6610    2.1270 C.ar   36  PHE36      -0.0003
     68  CZ        32.7120    0.1680    2.2630 C.ar   36  PHE36      -0.0000
     69  N         32.6650   -7.9880   10.9960 N.3    58  THR58      -0.1218
     70  CA        32.9500   -7.4640    9.6470 C.3    58  THR58       0.1862
     71  C         34.4480   -7.2120    9.5090 C.2    58  THR58       0.2287
     72  O         35.0620   -7.6310    8.5220 O.2    58  THR58      -0.2866
     73  CB        32.0420   -6.2780    9.2360 C.3    58  THR58       0.1770
     74  OG1       30.6770   -6.8380    9.1850 O.3    58  THR58      -0.2211
     75  CG2       32.3980   -5.7170    7.8260 C.3    58  THR58       0.0375
     76  N         36.3930  -10.2790    8.9920 N.3    61  SER61      -0.1202
     77  CA        36.1470  -10.9240    7.6990 C.3    61  SER61       0.2020
     78  C         37.0790  -10.3750    6.6500 C.2    61  SER61       0.2618
     79  O         37.1520  -11.0370    5.5700 O.2    61  SER61      -0.2717
     80  CB        34.6750  -10.8140    7.2980 C.3    61  SER61       0.2103
     81  OG        34.3510   -9.5290    6.7410 O.3    61  SER61      -0.2182
     82  N         37.7410   -9.2530    6.8600 N.am   62  ILE62      -0.1979
     83  CA        38.6650   -8.7160    5.8010 C.3    62  ILE62       0.1595
     84  C         39.9940   -9.4570    6.0420 C.2    62  ILE62       0.2287
     85  O         40.4720   -9.5220    7.1890 O.2    62  ILE62      -0.2864
     86  CB        38.8680   -7.1770    5.9980 C.3    62  ILE62       0.0276
     87  CG1       37.4580   -6.4380    6.0430 C.3    62  ILE62       0.0022
     88  CG2       39.7610   -6.5490    4.9150 C.3    62  ILE62       0.0022
     89  CD1       37.5660   -4.9920    6.5830 C.3    62  ILE62       0.0001
     90  N         40.8560   -0.5230    5.8320 N.3    69  LEU69      -0.1245
     91  CA        40.4830   -0.0350    4.4410 C.3    69  LEU69       0.1561
     92  C         41.2780    1.2430    4.2120 C.2    69  LEU69       0.2260
     93  O         41.3420    2.1620    5.0430 O.2    69  LEU69      -0.2867
     94  CB        38.9730    0.1120    4.4240 C.3    69  LEU69       0.0270
     95  CG        38.1280   -1.1140    4.5940 C.3    69  LEU69       0.0019
     96  CD1       36.6100   -0.7510    4.5300 C.3    69  LEU69       0.0001
     97  CD2       38.3810   -2.2000    3.5790 C.3    69  LEU69       0.0001
     98  N         29.2770    0.9250    7.8990 N.3   112  ILE112     -0.1245
     99  CA        29.3660   -0.0220    6.7600 C.3   112  ILE112      0.1561
    100  C         28.9770   -1.4440    7.0130 C.2   112  ILE112      0.2260
    101  O         29.0740   -2.2920    6.1060 O.2   112  ILE112     -0.2867
    102  CB        30.8240    0.1500    6.1260 C.3   112  ILE112      0.0252
    103  CG1       31.8850   -0.4520    7.0610 C.3   112  ILE112      0.0019
    104  CG2       31.0160    1.6120    5.6620 C.3   112  ILE112      0.0019
    105  CD1       33.2510   -0.7430    6.4070 C.3   112  ILE112      0.0001
    106  N         24.0000   -2.7020   11.8440 N.3   118  TYR118     -0.1241
    107  CA        22.9270   -1.9930   11.1310 C.3   118  TYR118      0.1605
    108  C         21.6020   -1.9980   11.9090 C.2   118  TYR118      0.2264
    109  O         20.9520   -0.9320   11.8940 O.2   118  TYR118     -0.2867
    110  CB        22.6080   -2.6160    9.7590 C.3   118  TYR118      0.0534
    111  CG        23.6560   -2.4880    8.6700 C.ar  118  TYR118     -0.0201
    112  CD1       24.2130   -1.2450    8.3270 C.ar  118  TYR118     -0.0009
    113  CD2       23.9400   -3.6130    7.9090 C.ar  118  TYR118     -0.0009
    114  CE1       25.1010   -1.1490    7.2570 C.ar  118  TYR118      0.0417
    115  CE2       24.8160   -3.5350    6.8320 C.ar  118  TYR118      0.0417
    116  CZ        25.3810   -2.3160    6.5050 C.ar  118  TYR118      0.1957
    117  OH        26.2530   -2.2220    5.4780 O.3   118  TYR118     -0.2866
    118  N         21.8130    0.3280   -1.6480 N.3   133  THR133     -0.1218
    119  CA        21.8070   -0.1840   -3.1140 C.3   133  THR133      0.1862
    120  C         20.6810   -1.2360   -3.1370 C.2   133  THR133      0.2287
    121  O         20.7090   -2.2590   -2.4060 O.2   133  THR133     -0.2866
    122  CB        23.1910   -0.8370   -3.4870 C.3   133  THR133      0.1770
    123  OG1       24.1740    0.2540   -3.3880 O.3   133  THR133     -0.2211
    124  CG2       23.1570   -1.4110   -4.9440 C.3   133  THR133      0.0375
@<TRIPOS>BOND
     1    29    30    1
     2    30    33    1
     3    30    31    1
     4    46    47    1
     5    50    47    1
     6    50    51    1
     7    33    34    1
     8    53    51   ar
     9    53    55   ar
    10    47    48    1
    11    31    38   am
    12    31    32    2
    13    38    39    1
    14    51    52   ar
    15    55    56   ar
    16    34    35    1
    17    40    39    1
    18    40    41    2
    19    42    39    1
    20    42    43    1
    21    42    44    1
    22   124   122    1
    23    43    45    1
    24    48    49    2
    25    48    58   am
    26    52    54   ar
    27    56    57    1
    28    56    54   ar
    29    35    37   ar
    30    35    36   ar
    31    58    59    1
    32   122   123    1
    33   122   119    1
    34   120   119    1
    35   120   121    2
    36   119   118    1
    37    59    60    1
    38    59    62    1
    39    60    61    2
    40    62    63    1
    41    20    17    1
    42    24    23    2
    43    17    18    1
    44    17    16    1
    45    28    27    1
    46    63    64   ar
    47    63    65   ar
    48    64    66   ar
    49    23    22    1
    50    18    19    2
    51    25    22    1
    52    25    26    1
    53     8     6    1
    54    12    11    2
    55    27    26    1
    56    16    11   am
    57    65    67   ar
    58    22    21    1
    59    11    10    1
    60    66    68   ar
    61     6     5    1
    62    67    68   ar
    63    10     9    1
    64    10    13    1
    65     9     3   am
    66     5     2    1
    67     5     7    1
    68    14    13    1
    69     2     3    1
    70     2     1    1
    71     3     4    2
    72    97    95    1
    73    13    15    1
    74    92    91    1
    75    92    93    2
    76    94    91    1
    77    94    95    1
    78    91    90    1
    79    96    95    1
    80    88    86    1
    81   117   116    1
    82    79    78    2
    83   104   102    1
    84    83    86    1
    85    83    84    1
    86    83    82    1
    87    86    87    1
    88    84    85    2
    89    87    89    1
    90   101   100    2
    91   102    99    1
    92   102   103    1
    93   105   103    1
    94   116   115   ar
    95   116   114   ar
    96    78    82   am
    97    78    77    1
    98    81    80    1
    99    99   100    1
   100    99    98    1
   101   115   113   ar
   102   114   112   ar
   103    80    77    1
   104    77    76    1
   105    75    73    1
   106   113   111   ar
   107   112   111   ar
   108    72    71    2
   109   111   110    1
   110    74    73    1
   111    73    70    1
   112    71    70    1
   113    70    69    1
   114   110   107    1
   115   107   106    1
   116   107   108    1
   117   109   108    2
