@<TRIPOS>MOLECULE
tmp/1ia3B02.pdb
 103 98 0 0 0
SMALL
GASTEIGER

@<TRIPOS>ATOM
      1  N         10.5490   42.5840   12.7760 N.3    25  MET25      -0.1245
      2  CA         9.0660   42.5150   12.7930 C.3    25  MET25       0.1570
      3  C          8.6300   44.0060   12.6350 C.2    25  MET25       0.2261
      4  O          9.1880   44.8840   13.3030 O.2    25  MET25      -0.2867
      5  CB         8.5230   41.8970   14.0530 C.3    25  MET25       0.0387
      6  CG         8.9640   40.4700   14.2970 C.3    25  MET25       0.0595
      7  SD         8.2940   39.9080   15.9160 S.3    25  MET25      -0.1393
      8  CE         9.2310   40.9630   17.0030 C.3    25  MET25       0.0692
      9  N          5.5150   40.1980   23.0610 N.3    33  ILE33      -0.1245
     10  CA         6.9230   39.8790   23.4560 C.3    33  ILE33       0.1561
     11  C          6.9710   39.2100   24.8260 C.2    33  ILE33       0.2260
     12  O          7.7790   38.3160   25.0280 O.2    33  ILE33      -0.2867
     13  CB         7.8260   41.1700   23.4120 C.3    33  ILE33       0.0252
     14  CG1        7.8720   41.6300   21.9220 C.3    33  ILE33       0.0019
     15  CG2        9.3010   40.8440   23.8320 C.3    33  ILE33       0.0019
     16  CD1        8.3290   43.0970   21.7790 C.3    33  ILE33       0.0001
     17  N          5.8230   35.6320   24.3450 N.3    36  PHE36      -0.1227
     18  CA         6.9550   34.8600   23.7670 C.3    36  PHE36       0.1736
     19  C          7.9260   34.4200   24.8710 C.2    36  PHE36       0.2595
     20  O          8.3330   33.2530   25.0090 O.2    36  PHE36      -0.2718
     21  CB         7.5860   35.6970   22.6440 C.3    36  PHE36       0.0547
     22  CG         8.8610   35.1220   22.1140 C.ar   36  PHE36      -0.0202
     23  CD1       10.0790   35.5840   22.6060 C.ar   36  PHE36      -0.0042
     24  CD2        8.8430   34.0110   21.2660 C.ar   36  PHE36      -0.0042
     25  CE1       11.2860   35.0240   22.1880 C.ar   36  PHE36      -0.0003
     26  CE2       10.0580   33.4540   20.8190 C.ar   36  PHE36      -0.0003
     27  CZ        11.2560   33.9570   21.2970 C.ar   36  PHE36      -0.0000
     28  N          8.3650   35.3680   25.6630 N.am   37  LYS37      -0.1980
     29  CA         9.3230   35.0920   26.7710 C.3    37  LYS37       0.1596
     30  C          8.6930   34.0770   27.7130 C.2    37  LYS37       0.2287
     31  O          9.3660   33.0790   28.0180 O.2    37  LYS37      -0.2864
     32  CB         9.6030   36.3870   27.5290 C.3    37  LYS37       0.0298
     33  CG        10.6290   36.2680   28.6760 C.3    37  LYS37       0.0038
     34  CD        10.6610   37.6600   29.3480 C.3    37  LYS37       0.0206
     35  CE        11.4520   37.6360   30.6460 C.3    37  LYS37       0.1093
     36  NZ        12.9080   37.4150   30.3300 N.3    37  LYS37      -0.1314
     37  N         19.0110   35.6490   12.8270 N.3    58  THR58      -0.1218
     38  CA        18.2060   36.0430   13.9740 C.3    58  THR58       0.1862
     39  C         19.1080   36.2950   15.1840 C.2    58  THR58       0.2287
     40  O         18.9730   37.2780   15.9420 O.2    58  THR58      -0.2866
     41  CB        17.0680   35.0020   14.2440 C.3    58  THR58       0.1770
     42  OG1       16.2010   35.0630   13.0470 O.3    58  THR58      -0.2211
     43  CG2       16.2940   35.2880   15.5350 C.3    58  THR58       0.0375
     44  N         20.0560   40.2290   17.5310 N.3    62  ILE62      -0.1231
     45  CA        19.8010   40.5070   18.9440 C.3    62  ILE62       0.1678
     46  C         21.0330   41.2830   19.4500 C.2    62  ILE62       0.2434
     47  O         22.1270   40.7750   19.2920 O.2    62  ILE62      -0.2733
     48  CB        19.6780   39.1850   19.7890 C.3    62  ILE62       0.0265
     49  CG1       18.5740   38.2850   19.1390 C.3    62  ILE62       0.0019
     50  CG2       19.3640   39.5000   21.2750 C.3    62  ILE62       0.0020
     51  CD1       18.4760   36.8520   19.7140 C.3    62  ILE62       0.0001
     52  N         20.7770   42.4250   20.0640 N.am   63  PRO63      -0.2729
     53  CA        21.8930   43.2420   20.6370 C.3    63  PRO63       0.1401
     54  C         22.6810   42.3400   21.5900 C.2    63  PRO63       0.2269
     55  O         22.0660   41.5750   22.3560 O.2    63  PRO63      -0.2865
     56  CB        21.1450   44.3200   21.4150 C.3    63  PRO63       0.0296
     57  CG        19.8090   44.4770   20.6870 C.3    63  PRO63       0.0237
     58  CD        19.4720   43.0470   20.2490 C.3    63  PRO63       0.0939
     59  N         21.8600   41.5050   25.0450 N.3    66  PHE66      -0.1241
     60  CA        20.6280   40.7630   25.2090 C.3    66  PHE66       0.1605
     61  C         20.6860   39.2970   24.8240 C.2    66  PHE66       0.2264
     62  O         19.6490   38.6490   24.7970 O.2    66  PHE66      -0.2867
     63  CB        19.3980   41.4570   24.6010 C.3    66  PHE66       0.0534
     64  CG        19.2280   42.8390   25.1810 C.ar   66  PHE66      -0.0203
     65  CD1       19.1310   43.0430   26.5760 C.ar   66  PHE66      -0.0042
     66  CD2       19.1260   43.9160   24.3160 C.ar   66  PHE66      -0.0042
     67  CE1       19.0450   44.3230   27.0940 C.ar   66  PHE66      -0.0003
     68  CE2       18.9480   45.2090   24.8310 C.ar   66  PHE66      -0.0003
     69  CZ        18.9230   45.3950   26.2220 C.ar   66  PHE66      -0.0000
     70  N         19.4170   34.5220   24.9600 N.3    69  LEU69      -0.1231
     71  CA        18.0770   34.7190   25.5890 C.3    69  LEU69       0.1678
     72  C         18.1810   33.9930   26.9250 C.2    69  LEU69       0.2434
     73  O         18.5800   32.8030   26.9850 O.2    69  LEU69      -0.2733
     74  CB        17.0530   34.1980   24.6020 C.3    69  LEU69       0.0284
     75  CG        17.0190   34.8110   23.1830 C.3    69  LEU69       0.0019
     76  CD1       15.7130   34.2420   22.5210 C.3    69  LEU69       0.0001
     77  CD2       16.8900   36.3280   23.1790 C.3    69  LEU69       0.0001
     78  N         17.8380   34.6880   28.0030 N.am   70  PRO70      -0.2729
     79  CA        17.9730   34.1310   29.3320 C.3    70  PRO70       0.1401
     80  C         17.0610   32.9840   29.6410 C.2    70  PRO70       0.2269
     81  O         15.9300   32.9240   29.1730 O.2    70  PRO70      -0.2865
     82  CB        17.6260   35.3030   30.3130 C.3    70  PRO70       0.0296
     83  CG        17.4450   36.4940   29.4560 C.3    70  PRO70       0.0237
     84  CD        17.3740   36.0890   28.0110 C.3    70  PRO70       0.0939
     85  N         17.0500   29.9610   28.9300 N.3    72  ARG72      -0.1245
     86  CA        16.7970   28.8840   27.9240 C.3    72  ARG72       0.1563
     87  C         18.1400   28.5500   27.2590 C.2    72  ARG72       0.2260
     88  O         19.0210   29.3920   27.2040 O.2    72  ARG72      -0.2867
     89  CB        15.8470   29.4350   26.8100 C.3    72  ARG72       0.0307
     90  CG        14.4000   29.6820   27.3300 C.3    72  ARG72       0.0489
     91  CD        13.8370   30.8220   26.5100 C.3    72  ARG72       0.2205
     92  NE        14.2260   32.1310   27.0330 N.pl3  72  ARG72      -0.0865
     93  CZ        13.8260   33.3170   26.6020 C.cat  72  ARG72       0.5346
     94  NH1       12.9630   33.4820   25.5760 N.pl3  72  ARG72       0.1354
     95  NH2       14.2630   34.4170   27.2510 N.pl3  72  ARG72       0.1354
     96  N         12.4120   29.3350   16.9210 N.3   112  ILE112     -0.1245
     97  CA        11.9310   30.7270   17.0370 C.3   112  ILE112      0.1561
     98  C         12.1120   31.5860   15.8060 C.2   112  ILE112      0.2260
     99  O         11.5110   32.7040   15.7520 O.2   112  ILE112     -0.2867
    100  CB        12.4620   31.4090   18.3680 C.3   112  ILE112      0.0252
    101  CG1       14.0080   31.6280   18.2190 C.3   112  ILE112      0.0019
    102  CG2       12.1480   30.5350   19.5950 C.3   112  ILE112      0.0019
    103  CD1       14.6290   32.6840   19.1720 C.3   112  ILE112      0.0001
@<TRIPOS>BOND
     1     3     2    1
     2     3     4    2
     3     1     2    1
     4     2     5    1
     5    37    38    1
     6    42    41    1
     7    38    41    1
     8    38    39    1
     9     5     6    1
    10    41    43    1
    11     6     7    1
    12    39    40    2
    13    99    98    2
    14    98    97    1
    15     7     8    1
    16    96    97    1
    17    97   100    1
    18    44    45    1
    19   101   100    1
    20   101   103    1
    21   100   102    1
    22    45    46    1
    23    45    48    1
    24    49    51    1
    25    49    48    1
    26    47    46    2
    27    46    52   am
    28    48    50    1
    29    52    58    1
    30    52    53    1
    31    58    57    1
    32    53    56    1
    33    53    54    1
    34    57    56    1
    35    26    24   ar
    36    26    27   ar
    37    24    22   ar
    38    27    25   ar
    39    54    55    2
    40    16    14    1
    41    14    13    1
    42    22    23   ar
    43    22    21    1
    44    25    23   ar
    45    76    75    1
    46    21    18    1
    47     9    10    1
    48    77    75    1
    49    75    74    1
    50    13    10    1
    51    13    15    1
    52    10    11    1
    53    18    17    1
    54    18    19    1
    55    66    68   ar
    56    66    64   ar
    57    63    64    1
    58    63    60    1
    59    74    71    1
    60    62    61    2
    61    61    60    1
    62    11    12    2
    63    68    69   ar
    64    19    20    2
    65    19    28   am
    66    70    71    1
    67    59    60    1
    68    64    65   ar
    69    94    93    1
    70    71    72    1
    71    28    29    1
    72    69    67   ar
    73    91    92    1
    74    91    90    1
    75    65    67   ar
    76    93    92    2
    77    93    95    1
    78    29    32    1
    79    29    30    1
    80    89    90    1
    81    89    86    1
    82    72    73    2
    83    72    78   am
    84    88    87    2
    85    87    86    1
    86    32    33    1
    87    30    31    2
    88    86    85    1
    89    78    84    1
    90    78    79    1
    91    84    83    1
    92    33    34    1
    93    81    80    2
    94    79    80    1
    95    79    82    1
    96    34    35    1
    97    83    82    1
    98    36    35    1
