@<TRIPOS>MOLECULE
tmp/1ia3B00.pdb
 145 138 0 0 0
SMALL
GASTEIGER

@<TRIPOS>ATOM
      1  N         13.0070   43.1990    6.1300 N.3    22  LYS22      -0.1231
      2  CA        14.4370   43.4730    6.3120 C.3    22  LYS22       0.1693
      3  C         14.9380   42.9140    7.6360 C.2    22  LYS22       0.2592
      4  O         15.7630   43.5240    8.3690 O.2    22  LYS22      -0.2718
      5  CB        14.7370   44.9940    6.2590 C.3    22  LYS22       0.0285
      6  CG        15.0270   45.6440    4.9610 C.3    22  LYS22       0.0035
      7  CD        14.0170   45.5760    3.8480 C.3    22  LYS22       0.0206
      8  CE        14.4110   46.4770    2.6660 C.3    22  LYS22       0.1093
      9  NZ        15.5790   45.8930    1.9540 N.3    22  LYS22      -0.1314
     10  N         14.4110   41.7280    7.9910 N.am   23  GLY23      -0.1957
     11  CA        14.8480   41.0310    9.1910 C.3    23  GLY23       0.1869
     12  C         14.3170   41.4420   10.5030 C.2    23  GLY23       0.2309
     13  O         14.8000   40.9130   11.5440 O.2    23  GLY23      -0.2863
     14  N         18.1710   30.6820   13.5690 N.3    55  GLY55      -0.1210
     15  CA        19.1840   30.7960   12.4930 C.3    55  GLY55       0.1956
     16  C         20.2010   31.8710   12.8810 C.2    55  GLY55       0.2612
     17  O         19.9470   32.7960   13.6790 O.2    55  GLY55      -0.2717
     18  N         21.3860   31.8340   12.2440 N.am   56  ARG56      -0.1965
     19  CA        22.4440   32.8350   12.5360 C.3    56  ARG56       0.1729
     20  C         21.9720   34.2640   12.3580 C.2    56  ARG56       0.2616
     21  O         22.3560   35.1710   13.1230 O.2    56  ARG56      -0.2715
     22  CB        23.6860   32.5580   11.6630 C.3    56  ARG56       0.0348
     23  CG        24.8390   33.5450   12.0340 C.3    56  ARG56       0.0492
     24  CD        25.8990   33.4750   11.0250 C.3    56  ARG56       0.2205
     25  NE        25.4910   33.7220    9.6600 N.pl3  56  ARG56      -0.0865
     26  CZ        25.0820   34.8180    9.0280 C.cat  56  ARG56       0.5346
     27  NH1       24.8870   34.7520    7.7020 N.pl3  56  ARG56       0.1354
     28  NH2       24.8510   35.9810    9.6490 N.pl3  56  ARG56       0.1354
     29  N         21.1680   34.5220   11.3310 N.am   57  LYS57      -0.1963
     30  CA        20.7220   35.9080   11.1040 C.3    57  LYS57       0.1728
     31  C         19.9120   36.4190   12.2670 C.2    57  LYS57       0.2616
     32  O         20.0850   37.5970   12.6300 O.2    57  LYS57      -0.2715
     33  CB        20.0570   36.0610    9.7630 C.3    57  LYS57       0.0311
     34  CG        21.0970   35.7460    8.6420 C.3    57  LYS57       0.0038
     35  CD        20.3930   35.8620    7.3010 C.3    57  LYS57       0.0206
     36  CE        21.3630   35.3910    6.2150 C.3    57  LYS57       0.1093
     37  NZ        20.5450   35.1500    4.9840 N.3    57  LYS57      -0.1314
     38  N         19.0110   35.6490   12.8270 N.am   58  THR58      -0.1951
     39  CA        18.2060   36.0430   13.9740 C.3    58  THR58       0.1897
     40  C         19.1080   36.2950   15.1840 C.2    58  THR58       0.2313
     41  O         18.9730   37.2780   15.9420 O.2    58  THR58      -0.2863
     42  CB        17.0680   35.0020   14.2440 C.3    58  THR58       0.1794
     43  OG1       16.2010   35.0630   13.0470 O.3    58  THR58      -0.2208
     44  CG2       16.2940   35.2880   15.5350 C.3    58  THR58       0.0378
     45  N         22.0800   27.9490   14.3960 N.3    77  LEU77      -0.1231
     46  CA        22.4480   27.2540   13.1780 C.3    77  LEU77       0.1693
     47  C         23.2210   28.1530   12.1750 C.2    77  LEU77       0.2593
     48  O         22.8070   29.3020   11.9330 O.2    77  LEU77      -0.2718
     49  CB        21.1530   26.7400   12.4820 C.3    77  LEU77       0.0284
     50  CG        20.4870   25.5130   13.2020 C.3    77  LEU77       0.0019
     51  CD1       19.0770   25.3490   12.5210 C.3    77  LEU77       0.0001
     52  CD2       21.2670   24.3050   12.6740 C.3    77  LEU77       0.0001
     53  N         24.2840   27.5650   11.6550 N.am   78  SER78      -0.1938
     54  CA        25.0080   28.2440   10.5420 C.3    78  SER78       0.2055
     55  C         25.6100   27.1010    9.7280 C.2    78  SER78       0.2643
     56  O         26.1320   26.1490   10.3380 O.2    78  SER78      -0.2714
     57  CB        26.1010   29.1810   11.0020 C.3    78  SER78       0.2130
     58  OG        26.8730   29.6700    9.8570 O.3    78  SER78      -0.2179
     59  N         25.5800   27.2810    8.3940 N.am   79  ARG79      -0.1963
     60  CA        26.2280   26.2380    7.5710 C.3    79  ARG79       0.1729
     61  C         27.7330   26.3600    7.7220 C.2    79  ARG79       0.2616
     62  O         28.4150   25.3340    7.3650 O.2    79  ARG79      -0.2715
     63  CB        25.7830   26.2310    6.1280 C.3    79  ARG79       0.0348
     64  CG        24.2770   26.0040    6.0220 C.3    79  ARG79       0.0492
     65  CD        23.8640   25.9700    4.5710 C.3    79  ARG79       0.2205
     66  NE        22.4850   25.5560    4.4050 N.pl3  79  ARG79      -0.0865
     67  CZ        21.4300   26.3430    4.4240 C.cat  79  ARG79       0.5346
     68  NH1       21.5100   27.6690    4.5730 N.pl3  79  ARG79       0.1354
     69  NH2       20.2470   25.7840    4.3000 N.pl3  79  ARG79       0.1354
     70  N         28.2400   27.3790    8.3290 N.am   80  SER80      -0.1950
     71  CA        29.6680   27.5660    8.5580 C.3    80  SER80       0.1924
     72  C         30.1590   27.0860    9.9130 C.2    80  SER80       0.2314
     73  O         31.3940   27.1820   10.1670 O.2    80  SER80      -0.2863
     74  CB        30.0560   29.0620    8.4730 C.3    80  SER80       0.2116
     75  OG        29.9950   29.4040    7.0730 O.3    80  SER80      -0.2180
     76  N         25.6880   22.7350   13.0510 N.3    94  SER94      -0.1202
     77  CA        25.9860   22.9460   11.5900 C.3    94  SER94       0.2020
     78  C         24.8560   22.4580   10.7160 C.2    94  SER94       0.2619
     79  O         24.9110   22.5930    9.4700 O.2    94  SER94      -0.2717
     80  CB        27.2820   22.1340   11.2790 C.3    94  SER94       0.2103
     81  OG        26.9640   20.7850   11.6710 O.3    94  SER94      -0.2182
     82  N         23.8300   21.8130   11.2720 N.am   95  SER95      -0.1937
     83  CA        22.6940   21.3150   10.5220 C.3    95  SER95       0.2055
     84  C         21.4630   21.2240   11.3690 C.2    95  SER95       0.2642
     85  O         21.5560   21.1990   12.6000 O.2    95  SER95      -0.2714
     86  CB        23.0630   19.9370    9.9340 C.3    95  SER95       0.2130
     87  OG        23.1390   18.9060   10.9310 O.3    95  SER95      -0.2179
     88  N         20.2820   21.1630   10.7020 N.am   96  ILE96      -0.1977
     89  CA        19.0490   20.9600   11.5060 C.3    96  ILE96       0.1596
     90  C         19.1180   19.6320   12.2490 C.2    96  ILE96       0.2287
     91  O         18.7270   19.5370   13.4170 O.2    96  ILE96      -0.2864
     92  CB        17.8020   21.0680   10.5840 C.3    96  ILE96       0.0276
     93  CG1       17.7590   22.5770   10.0610 C.3    96  ILE96       0.0022
     94  CG2       16.4860   20.6200   11.3040 C.3    96  ILE96       0.0022
     95  CD1       16.7860   22.6590    8.8480 C.3    96  ILE96       0.0001
     96  N         14.7710   32.4080   11.9230 N.3   114  GLY114     -0.1210
     97  CA        13.8880   33.2860   11.1610 C.3   114  GLY114      0.1956
     98  C         13.1270   32.5210   10.0760 C.2   114  GLY114      0.2612
     99  O         12.7950   31.3410   10.1700 O.2   114  GLY114     -0.2717
    100  N         12.8780   33.2690    8.9790 N.am  115  ALA115     -0.1965
    101  CA        12.0940   32.7930    7.8420 C.3   115  ALA115      0.1728
    102  C         12.6040   31.5110    7.2380 C.2   115  ALA115      0.2616
    103  O         11.8160   30.6020    7.0540 O.2   115  ALA115     -0.2715
    104  CB        12.1830   33.8600    6.6990 C.3   115  ALA115      0.0334
    105  N         13.9170   31.4650    6.9960 N.am  116  GLU116     -0.1963
    106  CA        14.4940   30.2440    6.3700 C.3   116  GLU116      0.1733
    107  C         14.3400   29.0360    7.2480 C.2   116  GLU116      0.2616
    108  O         13.9890   27.9380    6.8010 O.2   116  GLU116     -0.2715
    109  CB        15.9680   30.4680    6.0210 C.3   116  GLU116      0.0429
    110  CG        16.6040   29.2600    5.2830 C.3   116  GLU116      0.1163
    111  CD        18.0150   29.3890    4.8110 C.2   116  GLU116      0.3649
    112  OE1       18.5270   28.4420    4.1830 O.co2 116  GLU116     -0.2457
    113  OE2       18.5500   30.4550    5.0450 O.co2 116  GLU116     -0.2457
    114  N         14.5760   29.2600    8.5710 N.am  117  ILE117     -0.1977
    115  CA        14.4570   28.1290    9.5190 C.3   117  ILE117      0.1596
    116  C         13.0410   27.6450    9.5560 C.2   117  ILE117      0.2287
    117  O         12.7960   26.4130    9.5680 O.2   117  ILE117     -0.2864
    118  CB        15.0170   28.6220   10.9210 C.3   117  ILE117      0.0276
    119  CG1       16.5210   28.9300   10.7630 C.3   117  ILE117      0.0022
    120  CG2       14.7540   27.5370   12.0220 C.3   117  ILE117      0.0022
    121  CD1       17.4980   27.7930   10.4320 C.3   117  ILE117      0.0001
    122  N         12.2460   25.4710    6.6520 N.3   120  GLU120     -0.1245
    123  CA        12.9040   24.1800    6.6650 C.3   120  GLU120      0.1567
    124  C         12.3240   23.2520    7.7200 C.2   120  GLU120      0.2260
    125  O         12.4980   22.0040    7.5570 O.2   120  GLU120     -0.2867
    126  CB        14.4000   24.2550    6.9090 C.3   120  GLU120      0.0388
    127  CG        15.2260   24.8940    5.7300 C.3   120  GLU120      0.1160
    128  CD        16.6560   25.1540    6.0850 C.2   120  GLU120      0.3649
    129  OE1       16.9270   26.0880    6.8370 O.co2 120  GLU120     -0.2457
    130  OE2       17.4790   24.2850    5.6930 O.co2 120  GLU120     -0.2457
    131  N          8.4630   41.9470    3.4380 N.3   146  ASP146     -0.1225
    132  CA         9.1180   41.1620    2.3590 C.3   146  ASP146      0.1805
    133  C          9.2780   39.6790    2.6960 C.2   146  ASP146      0.2598
    134  O          9.9920   38.9220    1.9660 O.2   146  ASP146     -0.2718
    135  CB        10.4820   41.8140    2.0190 C.3   146  ASP146      0.1424
    136  CG        11.4670   41.7790    3.1480 C.2   146  ASP146      0.3668
    137  OD1       11.2900   41.1590    4.2180 O.co2 146  ASP146     -0.2456
    138  OD2       12.5380   42.4450    3.0670 O.co2 146  ASP146     -0.2456
    139  N          8.7590   39.2420    3.8260 N.am  147  THR147     -0.1953
    140  CA         8.9560   37.8500    4.3180 C.3   147  THR147      0.1897
    141  C          7.6240   37.3470    4.8500 C.2   147  THR147      0.2313
    142  O          7.0290   38.0390    5.6680 O.2   147  THR147     -0.2863
    143  CB        10.0190   37.9940    5.4670 C.3   147  THR147      0.1794
    144  OG1       11.1370   38.6470    4.7590 O.3   147  THR147     -0.2208
    145  CG2       10.4860   36.7960    6.2160 C.3   147  THR147      0.0378
@<TRIPOS>BOND
     1     9     8    1
     2   134   133    2
     3   135   132    1
     4   135   136    1
     5   132   133    1
     6   132   131    1
     7     8     7    1
     8   133   139   am
     9   138   136   ar
    10   136   137   ar
    11   139   140    1
    12     7     6    1
    13   112   111   ar
    14    69    67    1
    15   140   141    1
    16   140   143    1
    17    66    67    2
    18    66    65    1
    19    67    68    1
    20    65    64    1
    21   144   143    1
    22   111   113   ar
    23   111   110    1
    24   141   142    2
    25     6     5    1
    26    37    36    1
    27   110   109    1
    28   143   145    1
    29   130   128   ar
    30   127   128    1
    31   127   126    1
    32   109   106    1
    33    64    63    1
    34   128   129   ar
    35    63    60    1
    36     1     2    1
    37    36    35    1
    38     5     2    1
    39     2     3    1
    40   106   105    1
    41   106   107    1
    42   122   123    1
    43   123   126    1
    44   123   124    1
    45   104   101    1
    46   108   107    2
    47   105   102   am
    48   103   102    2
    49    75    74    1
    50   102   101    1
    51   107   114   am
    52    35    34    1
    53    62    61    2
    54   125   124    2
    55    60    61    1
    56    60    59    1
    57     3    10   am
    58     3     4    2
    59    27    26    1
    60    61    70   am
    61   101   100    1
    62    10    11    1
    63    70    71    1
    64    59    55   am
    65    74    71    1
    66    71    72    1
    67   114   115    1
    68    34    33    1
    69    95    93    1
    70   100    98   am
    71    26    28    1
    72    26    25    2
    73    11    12    1
    74    79    78    2
    75   115   116    1
    76   115   118    1
    77   116   117    2
    78    25    24    1
    79    55    56    2
    80    55    54    1
    81    33    30    1
    82    58    57    1
    83    72    73    2
    84    86    83    1
    85    86    87    1
    86    93    92    1
    87    98    99    2
    88    98    97    1
    89   121   119    1
    90    12    13    2
    91    83    82    1
    92    83    84    1
    93    54    57    1
    94    54    53    1
    95    92    94    1
    96    92    89    1
    97    88    84   am
    98    88    89    1
    99    78    82   am
   100    78    77    1
   101   119   118    1
   102   118   120    1
   103    24    23    1
   104    30    29    1
   105    30    31    1
   106    97    96    1
   107    80    77    1
   108    80    81    1
   109    29    20   am
   110    84    85    2
   111    89    90    1
   112    77    76    1
   113    53    47   am
   114    22    23    1
   115    22    19    1
   116    48    47    2
   117    47    46    1
   118    18    19    1
   119    18    16   am
   120    90    91    2
   121    31    32    2
   122    31    38   am
   123    20    19    1
   124    20    21    2
   125    49    46    1
   126    49    50    1
   127    15    16    1
   128    15    14    1
   129    51    50    1
   130    52    50    1
   131    38    39    1
   132    16    17    2
   133    43    42    1
   134    46    45    1
   135    39    42    1
   136    39    40    1
   137    42    44    1
   138    40    41    2
