@<TRIPOS>MOLECULE
tmp/1ia3B01.pdb
 147 140 0 0 0
SMALL
GASTEIGER

@<TRIPOS>ATOM
      1  N          7.2660   28.6720   17.0070 N.3     9  ILE9       -0.1231
      2  CA         6.4600   29.8040   17.6050 C.3     9  ILE9        0.1692
      3  C          6.7260   31.0120   16.6520 C.2     9  ILE9        0.2592
      4  O          7.8930   31.2880   16.3320 O.2     9  ILE9       -0.2718
      5  CB         6.7870   29.9960   19.0700 C.3     9  ILE9        0.0266
      6  CG1        5.9710   31.1220   19.7190 C.3     9  ILE9        0.0019
      7  CG2        8.3170   30.2180   19.3090 C.3     9  ILE9        0.0020
      8  CD1        5.9190   31.2280   21.2450 C.3     9  ILE9        0.0001
      9  N          5.6220   31.5850   16.2030 N.am   10  VAL10      -0.1966
     10  CA         5.7340   32.7280   15.2330 C.3    10  VAL10       0.1727
     11  C          4.6130   33.7510   15.4390 C.2    10  VAL10       0.2616
     12  O          3.5690   33.4110   15.9910 O.2    10  VAL10      -0.2715
     13  CB         5.7160   32.0630   13.8400 C.3    10  VAL10       0.0290
     14  CG1        4.3880   31.3900   13.5420 C.3    10  VAL10       0.0023
     15  CG2        6.0760   33.0680   12.7390 C.3    10  VAL10       0.0023
     16  N          4.8420   35.0000   14.9700 N.am   11  ALA11      -0.1977
     17  CA         3.7970   36.0730   15.0500 C.3    11  ALA11       0.1597
     18  C          3.6710   36.5680   13.5610 C.2    11  ALA11       0.2287
     19  O          4.6830   36.8620   12.9260 O.2    11  ALA11      -0.2864
     20  CB         4.2730   37.2030   15.9720 C.3    11  ALA11       0.0319
     21  N          5.6950   38.1250    8.1680 N.3    19  ILE19      -0.1231
     22  CA         6.4540   37.9430    9.3740 C.3    19  ILE19       0.1692
     23  C          7.5770   38.9010    9.5860 C.2    19  ILE19       0.2592
     24  O          8.0400   39.0330   10.7230 O.2    19  ILE19      -0.2718
     25  CB         6.9340   36.4370    9.5710 C.3    19  ILE19       0.0266
     26  CG1        7.8520   36.0350    8.4290 C.3    19  ILE19       0.0019
     27  CG2        5.7190   35.5100    9.7790 C.3    19  ILE19       0.0020
     28  CD1        8.6070   34.6720    8.6130 C.3    19  ILE19       0.0001
     29  N          8.0190   39.6050    8.5090 N.am   20  GLY20      -0.1957
     30  CA         9.1180   40.5320    8.7210 C.3    20  GLY20       0.1869
     31  C          9.3780   41.4290    7.5370 C.2    20  GLY20       0.2309
     32  O          8.7730   41.3050    6.5060 O.2    20  GLY20      -0.2863
     33  N         14.4110   41.7280    7.9910 N.3    23  GLY23      -0.1210
     34  CA        14.8480   41.0310    9.1910 C.3    23  GLY23       0.1956
     35  C         14.3170   41.4420   10.5030 C.2    23  GLY23       0.2612
     36  O         14.8000   40.9130   11.5440 O.2    23  GLY23      -0.2717
     37  N         13.3390   42.3320   10.5260 N.am   24  LYS24      -0.1965
     38  CA        12.7080   42.7860   11.7880 C.3    24  LYS24       0.1728
     39  C         11.1980   42.6600   11.6330 C.2    24  LYS24       0.2616
     40  O         10.6700   42.7220   10.5120 O.2    24  LYS24      -0.2715
     41  CB        12.9750   44.2990   12.0400 C.3    24  LYS24       0.0311
     42  CG        14.4580   44.5380   12.3640 C.3    24  LYS24       0.0038
     43  CD        14.9470   45.9420   12.1050 C.3    24  LYS24       0.0206
     44  CE        16.4010   46.1360   12.5390 C.3    24  LYS24       0.1093
     45  NZ        17.2920   45.1180   11.8860 N.3    24  LYS24      -0.1314
     46  N         10.5490   42.5840   12.7760 N.am   25  MET25      -0.1977
     47  CA         9.0660   42.5150   12.7930 C.3    25  MET25       0.1605
     48  C          8.6300   44.0060   12.6350 C.2    25  MET25       0.2287
     49  O          9.1880   44.8840   13.3030 O.2    25  MET25      -0.2864
     50  CB         8.5230   41.8970   14.0530 C.3    25  MET25       0.0413
     51  CG         8.9640   40.4700   14.2970 C.3    25  MET25       0.0598
     52  SD         8.2940   39.9080   15.9160 S.3    25  MET25      -0.1393
     53  CE         9.2310   40.9630   17.0030 C.3    25  MET25       0.0692
     54  N          2.7850   40.8580   23.4180 N.3    32  GLU32      -0.1231
     55  CA         3.2190   39.7210   22.5500 C.3    32  GLU32       0.1699
     56  C          4.6100   39.2570   22.8790 C.2    32  GLU32       0.2592
     57  O          4.8990   38.0550   23.0210 O.2    32  GLU32      -0.2718
     58  CB         3.1070   40.1520   21.0910 C.3    32  GLU32       0.0402
     59  CG         2.7160   38.9470   20.1530 C.3    32  GLU32       0.1161
     60  CD         3.8410   37.9430   19.9410 C.2    32  GLU32       0.3649
     61  OE1        5.0130   38.2970   19.8110 O.co2  32  GLU32      -0.2457
     62  OE2        3.4500   36.7440   19.8900 O.co2  32  GLU32      -0.2457
     63  N          5.5150   40.1980   23.0610 N.am   33  ILE33      -0.1980
     64  CA         6.9230   39.8790   23.4560 C.3    33  ILE33       0.1595
     65  C          6.9710   39.2100   24.8260 C.2    33  ILE33       0.2287
     66  O          7.7790   38.3160   25.0280 O.2    33  ILE33      -0.2864
     67  CB         7.8260   41.1700   23.4120 C.3    33  ILE33       0.0276
     68  CG1        7.8720   41.6300   21.9220 C.3    33  ILE33       0.0022
     69  CG2        9.3010   40.8440   23.8320 C.3    33  ILE33       0.0022
     70  CD1        8.3290   43.0970   21.7790 C.3    33  ILE33       0.0001
     71  N          4.5210   37.3680   26.0970 N.3    35  TYR35      -0.1227
     72  CA         3.9880   36.0400   25.8800 C.3    35  TYR35       0.1736
     73  C          5.1080   35.1210   25.3430 C.2    35  TYR35       0.2595
     74  O          5.2020   33.9530   25.7850 O.2    35  TYR35      -0.2718
     75  CB         2.8690   36.0850   24.8130 C.3    35  TYR35       0.0548
     76  CG         2.3520   34.7350   24.3390 C.ar   35  TYR35      -0.0200
     77  CD1        2.7390   34.2420   23.1130 C.ar   35  TYR35      -0.0009
     78  CD2        1.4510   34.0340   25.1370 C.ar   35  TYR35      -0.0009
     79  CE1        2.2260   33.0090   22.6280 C.ar   35  TYR35       0.0417
     80  CE2        0.9530   32.8060   24.7080 C.ar   35  TYR35       0.0417
     81  CZ         1.3150   32.3270   23.4570 C.ar   35  TYR35       0.1957
     82  OH         0.8020   31.1280   23.0850 O.3    35  TYR35      -0.2866
     83  N          5.8230   35.6320   24.3450 N.am   36  PHE36      -0.1976
     84  CA         6.9550   34.8600   23.7670 C.3    36  PHE36       0.1639
     85  C          7.9260   34.4200   24.8710 C.2    36  PHE36       0.2290
     86  O          8.3330   33.2530   25.0090 O.2    36  PHE36      -0.2864
     87  CB         7.5860   35.6970   22.6440 C.3    36  PHE36       0.0560
     88  CG         8.8610   35.1220   22.1140 C.ar   36  PHE36      -0.0200
     89  CD1       10.0790   35.5840   22.6060 C.ar   36  PHE36      -0.0042
     90  CD2        8.8430   34.0110   21.2660 C.ar   36  PHE36      -0.0042
     91  CE1       11.2860   35.0240   22.1880 C.ar   36  PHE36      -0.0003
     92  CE2       10.0580   33.4540   20.8190 C.ar   36  PHE36      -0.0003
     93  CZ        11.2560   33.9570   21.2970 C.ar   36  PHE36      -0.0000
     94  N         19.0110   35.6490   12.8270 N.3    58  THR58      -0.1218
     95  CA        18.2060   36.0430   13.9740 C.3    58  THR58       0.1862
     96  C         19.1080   36.2950   15.1840 C.2    58  THR58       0.2287
     97  O         18.9730   37.2780   15.9420 O.2    58  THR58      -0.2866
     98  CB        17.0680   35.0020   14.2440 C.3    58  THR58       0.1770
     99  OG1       16.2010   35.0630   13.0470 O.3    58  THR58      -0.2211
    100  CG2       16.2940   35.2880   15.5350 C.3    58  THR58       0.0375
    101  N         12.4120   29.3350   16.9210 N.3   112  ILE112     -0.1231
    102  CA        11.9310   30.7270   17.0370 C.3   112  ILE112      0.1692
    103  C         12.1120   31.5860   15.8060 C.2   112  ILE112      0.2593
    104  O         11.5110   32.7040   15.7520 O.2   112  ILE112     -0.2718
    105  CB        12.4620   31.4090   18.3680 C.3   112  ILE112      0.0266
    106  CG1       14.0080   31.6280   18.2190 C.3   112  ILE112      0.0019
    107  CG2       12.1480   30.5350   19.5950 C.3   112  ILE112      0.0020
    108  CD1       14.6290   32.6840   19.1720 C.3   112  ILE112      0.0001
    109  N         12.8580   31.0510   14.8450 N.am  113  GLY113     -0.1942
    110  CA        13.0440   31.8620   13.5830 C.3   113  GLY113      0.2014
    111  C         14.4420   31.7530   13.0370 C.2   113  GLY113      0.2639
    112  O         15.2870   31.0310   13.5870 O.2   113  GLY113     -0.2714
    113  N         14.7710   32.4080   11.9230 N.am  114  GLY114     -0.1939
    114  CA        13.8880   33.2860   11.1610 C.3   114  GLY114      0.2014
    115  C         13.1270   32.5210   10.0760 C.2   114  GLY114      0.2638
    116  O         12.7950   31.3410   10.1700 O.2   114  GLY114     -0.2714
    117  N         12.8780   33.2690    8.9790 N.am  115  ALA115     -0.1977
    118  CA        12.0940   32.7930    7.8420 C.3   115  ALA115      0.1597
    119  C         12.6040   31.5110    7.2380 C.2   115  ALA115      0.2287
    120  O         11.8160   30.6020    7.0540 O.2   115  ALA115     -0.2864
    121  CB        12.1830   33.8600    6.6990 C.3   115  ALA115      0.0319
    122  N         12.0940   28.5920    9.6650 N.3   118  TYR118     -0.1241
    123  CA        10.6710   28.1530    9.6770 C.3   118  TYR118      0.1605
    124  C         10.3610   27.2640    8.4590 C.2   118  TYR118      0.2264
    125  O          9.6940   26.2460    8.6080 O.2   118  TYR118     -0.2867
    126  CB         9.6850   29.2720    9.7240 C.3   118  TYR118      0.0534
    127  CG         9.6800   30.2060   10.8760 C.ar  118  TYR118     -0.0201
    128  CD1        9.7520   29.8080   12.2280 C.ar  118  TYR118     -0.0009
    129  CD2        9.5270   31.5730   10.5990 C.ar  118  TYR118     -0.0009
    130  CE1        9.6820   30.7210   13.2680 C.ar  118  TYR118      0.0417
    131  CE2        9.4220   32.5020   11.6330 C.ar  118  TYR118      0.0417
    132  CZ         9.5420   32.0760   12.9500 C.ar  118  TYR118      0.1957
    133  OH         9.4820   33.0960   13.8660 O.3   118  TYR118     -0.2866
    134  N          0.7970   33.5910   16.6030 N.3   133  THR133     -0.1218
    135  CA         0.1130   34.8190   17.0400 C.3   133  THR133      0.1862
    136  C         -0.4880   35.4420   15.7210 C.2   133  THR133      0.2287
    137  O          0.2900   35.8520   14.8790 O.2   133  THR133     -0.2866
    138  CB         0.9810   35.8520   17.7690 C.3   133  THR133      0.1770
    139  OG1        1.4660   35.1320   18.9550 O.3   133  THR133     -0.2211
    140  CG2        0.0760   37.0760   18.2000 C.3   133  THR133      0.0375
    141  N          8.7590   39.2420    3.8260 N.3   147  THR147     -0.1218
    142  CA         8.9560   37.8500    4.3180 C.3   147  THR147      0.1862
    143  C          7.6240   37.3470    4.8500 C.2   147  THR147      0.2287
    144  O          7.0290   38.0390    5.6680 O.2   147  THR147     -0.2866
    145  CB        10.0190   37.9940    5.4670 C.3   147  THR147      0.1770
    146  OG1       11.1370   38.6470    4.7590 O.3   147  THR147     -0.2211
    147  CG2       10.4860   36.7960    6.2160 C.3   147  THR147      0.0375
@<TRIPOS>BOND
     1   141   142    1
     2   142   143    1
     3   142   145    1
     4   146   145    1
     5   143   144    2
     6   145   147    1
     7    32    31    2
     8   121   118    1
     9   120   119    2
    10   119   118    1
    11    31    30    1
    12   118   117    1
    13    33    34    1
    14    21    22    1
    15    26    28    1
    16    26    25    1
    17   124   125    2
    18   124   123    1
    19    29    30    1
    20    29    23   am
    21   117   115   am
    22    34    35    1
    23    22    25    1
    24    22    23    1
    25    25    27    1
    26    23    24    2
    27   122   123    1
    28   123   126    1
    29   126   127    1
    30   115   116    2
    31   115   114    1
    32    35    37   am
    33    35    36    2
    34    40    39    2
    35    37    38    1
    36   129   127   ar
    37   129   131   ar
    38   127   128   ar
    39   114   113    1
    40    39    38    1
    41    39    46   am
    42   131   132   ar
    43    38    41    1
    44    45    44    1
    45   113   111   am
    46    41    42    1
    47    43    42    1
    48    43    44    1
    49   128   130   ar
    50    48    47    1
    51    48    49    2
    52    15    13    1
    53    46    47    1
    54    47    50    1
    55    94    95    1
    56    19    18    2
    57   132   130   ar
    58   132   133    1
    59   111   110    1
    60   111   112    2
    61    99    98    1
    62    14    13    1
    63    18    17    1
    64   110   109    1
    65    13    10    1
    66    95    98    1
    67    95    96    1
    68    50    51    1
    69    98   100    1
    70    51    52    1
    71   109   103   am
    72   137   136    2
    73    16    17    1
    74    16    11   am
    75    17    20    1
    76    96    97    2
    77    10    11    1
    78    10     9    1
    79    11    12    2
    80   136   135    1
    81   104   103    2
    82   103   102    1
    83    52    53    1
    84     9     3   am
    85     4     3    2
    86   134   135    1
    87     3     2    1
    88   101   102    1
    89     1     2    1
    90   102   105    1
    91   135   138    1
    92     2     5    1
    93   138   140    1
    94   138   139    1
    95   106   105    1
    96   106   108    1
    97   105   107    1
    98     5     7    1
    99     5     6    1
   100     6     8    1
   101    61    60   ar
   102    62    60   ar
   103    60    59    1
   104    59    58    1
   105    92    90   ar
   106    92    93   ar
   107    58    55    1
   108    90    88   ar
   109    93    91   ar
   110    70    68    1
   111    68    67    1
   112    88    89   ar
   113    88    87    1
   114    91    89   ar
   115    55    56    1
   116    55    54    1
   117    79    77   ar
   118    79    81   ar
   119    87    84    1
   120    56    57    2
   121    56    63   am
   122    63    64    1
   123    82    81    1
   124    77    76   ar
   125    67    64    1
   126    67    69    1
   127    64    65    1
   128    81    80   ar
   129    84    83    1
   130    84    85    1
   131    76    75    1
   132    76    78   ar
   133    83    73   am
   134    80    78   ar
   135    75    72    1
   136    65    66    2
   137    85    86    2
   138    73    74    2
   139    73    72    1
   140    72    71    1
