@<TRIPOS>MOLECULE
tmp/1ia4B00.pdb
 145 138 0 0 0
SMALL
GASTEIGER

@<TRIPOS>ATOM
      1  N         12.7820   43.3700    5.7860 N.3    22  LYS22      -0.1231
      2  CA        14.1970   43.7800    5.9710 C.3    22  LYS22       0.1693
      3  C         14.7530   43.2240    7.2580 C.2    22  LYS22       0.2592
      4  O         15.5940   43.8810    7.9550 O.2    22  LYS22      -0.2718
      5  CB        14.3150   45.3150    5.9370 C.3    22  LYS22       0.0285
      6  CG        14.4190   46.0340    4.6460 C.3    22  LYS22       0.0035
      7  CD        13.5270   45.7020    3.4950 C.3    22  LYS22       0.0206
      8  CE        13.6210   46.7080    2.3550 C.3    22  LYS22       0.1093
      9  NZ        14.8920   46.5620    1.6070 N.3    22  LYS22      -0.1314
     10  N         14.2900   42.0100    7.6130 N.am   23  GLY23      -0.1957
     11  CA        14.7940   41.3620    8.8220 C.3    23  GLY23       0.1869
     12  C         14.2390   41.7810   10.1340 C.2    23  GLY23       0.2309
     13  O         14.7790   41.3240   11.1920 O.2    23  GLY23      -0.2863
     14  N         18.1700   30.6580   13.6310 N.3    55  GLY55      -0.1210
     15  CA        19.1150   30.8150   12.5290 C.3    55  GLY55       0.1956
     16  C         20.1550   31.8500   12.9190 C.2    55  GLY55       0.2612
     17  O         19.9290   32.6840   13.8080 O.2    55  GLY55      -0.2717
     18  N         21.2800   31.8150   12.2220 N.am   56  ARG56      -0.1965
     19  CA        22.3800   32.7780   12.4740 C.3    56  ARG56       0.1729
     20  C         21.9160   34.2010   12.3430 C.2    56  ARG56       0.2616
     21  O         22.2910   35.0690   13.1640 O.2    56  ARG56      -0.2715
     22  CB        23.5720   32.4620   11.5790 C.3    56  ARG56       0.0348
     23  CG        24.7540   33.4320   11.9530 C.3    56  ARG56       0.0492
     24  CD        25.7650   33.3890   10.9240 C.3    56  ARG56       0.2205
     25  NE        25.3550   33.6660    9.5810 N.pl3  56  ARG56      -0.0865
     26  CZ        24.9850   34.7820    8.9720 C.cat  56  ARG56       0.5346
     27  NH1       24.7870   34.6960    7.6510 N.pl3  56  ARG56       0.1354
     28  NH2       24.8070   35.9530    9.5930 N.pl3  56  ARG56       0.1354
     29  N         21.1480   34.5200   11.2990 N.am   57  LYS57      -0.1963
     30  CA        20.6640   35.8880   11.1250 C.3    57  LYS57       0.1728
     31  C         19.7660   36.3480   12.2360 C.2    57  LYS57       0.2616
     32  O         19.8610   37.5670   12.5710 O.2    57  LYS57      -0.2715
     33  CB        19.9840   36.0820    9.7640 C.3    57  LYS57       0.0311
     34  CG        21.0480   35.8160    8.6550 C.3    57  LYS57       0.0038
     35  CD        20.3140   35.8150    7.2950 C.3    57  LYS57       0.0206
     36  CE        21.2730   35.2400    6.2290 C.3    57  LYS57       0.1093
     37  NZ        20.4810   35.2160    4.9320 N.3    57  LYS57      -0.1314
     38  N         18.9360   35.5420   12.8440 N.am   58  THR58      -0.1951
     39  CA        18.0890   36.0390   13.9660 C.3    58  THR58       0.1897
     40  C         19.0250   36.2790   15.1540 C.2    58  THR58       0.2313
     41  O         18.9170   37.2820   15.8950 O.2    58  THR58      -0.2863
     42  CB        16.9530   35.0250   14.2810 C.3    58  THR58       0.1794
     43  OG1       16.1060   34.9030   13.0830 O.3    58  THR58      -0.2208
     44  CG2       16.1660   35.2970   15.5480 C.3    58  THR58       0.0378
     45  N         22.0240   27.9010   14.3430 N.3    77  LEU77      -0.1231
     46  CA        22.3470   27.1880   13.1350 C.3    77  LEU77       0.1693
     47  C         23.1080   28.0900   12.1290 C.2    77  LEU77       0.2593
     48  O         22.7580   29.2430   11.9520 O.2    77  LEU77      -0.2718
     49  CB        21.0480   26.6280   12.4970 C.3    77  LEU77       0.0284
     50  CG        20.4480   25.3470   13.1380 C.3    77  LEU77       0.0019
     51  CD1       19.0190   25.2270   12.6180 C.3    77  LEU77       0.0001
     52  CD2       21.2070   24.1700   12.5740 C.3    77  LEU77       0.0001
     53  N         24.1620   27.5150   11.5840 N.am   78  SER78      -0.1938
     54  CA        24.9560   28.1650   10.5370 C.3    78  SER78       0.2055
     55  C         25.5510   27.0650    9.6730 C.2    78  SER78       0.2643
     56  O         26.0410   26.0770   10.2270 O.2    78  SER78      -0.2714
     57  CB        26.0650   29.0700   11.0240 C.3    78  SER78       0.2130
     58  OG        26.8180   29.6270    9.9280 O.3    78  SER78      -0.2179
     59  N         25.5860   27.3200    8.3340 N.am   79  ARG79      -0.1963
     60  CA        26.2230   26.2490    7.5290 C.3    79  ARG79       0.1729
     61  C         27.7200   26.2950    7.6730 C.2    79  ARG79       0.2616
     62  O         28.3820   25.3140    7.2270 O.2    79  ARG79      -0.2715
     63  CB        25.8060   26.2860    6.0490 C.3    79  ARG79       0.0348
     64  CG        24.3410   25.9190    5.9180 C.3    79  ARG79       0.0492
     65  CD        23.9000   25.8760    4.4930 C.3    79  ARG79       0.2205
     66  NE        22.5330   25.4710    4.3530 N.pl3  79  ARG79      -0.0865
     67  CZ        21.4930   26.3170    4.4250 C.cat  79  ARG79       0.5346
     68  NH1       21.6100   27.6420    4.5440 N.pl3  79  ARG79       0.1354
     69  NH2       20.3400   25.7310    4.3600 N.pl3  79  ARG79       0.1354
     70  N         28.2800   27.2760    8.3520 N.am   80  SER80      -0.1950
     71  CA        29.7120   27.4110    8.5510 C.3    80  SER80       0.1924
     72  C         30.2230   26.9350    9.9280 C.2    80  SER80       0.2314
     73  O         31.4430   27.0390   10.1920 O.2    80  SER80      -0.2863
     74  CB        30.0380   28.9500    8.5820 C.3    80  SER80       0.2116
     75  OG        30.1820   29.3300    7.2140 O.3    80  SER80      -0.2180
     76  N         25.4910   22.6640   13.0640 N.3    94  SER94      -0.1202
     77  CA        25.8040   22.8160   11.6120 C.3    94  SER94       0.2020
     78  C         24.7370   22.3240   10.6790 C.2    94  SER94       0.2619
     79  O         24.7620   22.5590    9.4320 O.2    94  SER94      -0.2717
     80  CB        27.1680   22.1400   11.3690 C.3    94  SER94       0.2103
     81  OG        26.8990   20.7530   11.6670 O.3    94  SER94      -0.2182
     82  N         23.6740   21.7050   11.1730 N.am   95  SER95      -0.1937
     83  CA        22.5300   21.2190   10.4480 C.3    95  SER95       0.2055
     84  C         21.3340   21.1260   11.3740 C.2    95  SER95       0.2642
     85  O         21.4470   21.0780   12.6160 O.2    95  SER95      -0.2714
     86  CB        22.8870   19.8210    9.8730 C.3    95  SER95       0.2130
     87  OG        23.0650   18.8850   10.9470 O.3    95  SER95      -0.2179
     88  N         20.1520   21.0850   10.7590 N.am   96  ILE96      -0.1977
     89  CA        18.9250   20.8840   11.4970 C.3    96  ILE96       0.1596
     90  C         18.9450   19.5520   12.2740 C.2    96  ILE96       0.2287
     91  O         18.5190   19.5290   13.4250 O.2    96  ILE96      -0.2864
     92  CB        17.6860   20.9880   10.5450 C.3    96  ILE96       0.0276
     93  CG1       17.7160   22.4950   10.0990 C.3    96  ILE96       0.0022
     94  CG2       16.3810   20.5600   11.2690 C.3    96  ILE96       0.0022
     95  CD1       16.7080   22.8660    9.0240 C.3    96  ILE96       0.0001
     96  N         14.6660   32.3710   11.9100 N.3   114  GLY114     -0.1210
     97  CA        13.8130   33.2910   11.1770 C.3   114  GLY114      0.1956
     98  C         13.0600   32.4670   10.0640 C.2   114  GLY114      0.2612
     99  O         12.6820   31.3160   10.1610 O.2   114  GLY114     -0.2717
    100  N         12.7950   33.2430    9.0080 N.am  115  ALA115     -0.1965
    101  CA        12.0670   32.7670    7.8420 C.3   115  ALA115      0.1728
    102  C         12.5690   31.4740    7.2880 C.2   115  ALA115      0.2616
    103  O         11.8040   30.5180    7.0630 O.2   115  ALA115     -0.2715
    104  CB        12.2580   33.8670    6.7560 C.3   115  ALA115      0.0334
    105  N         13.8580   31.4430    6.9610 N.am  116  GLU116     -0.1963
    106  CA        14.4430   30.2130    6.4000 C.3   116  GLU116      0.1733
    107  C         14.2740   29.0210    7.2910 C.2   116  GLU116      0.2616
    108  O         13.9060   27.9270    6.8360 O.2   116  GLU116     -0.2715
    109  CB        15.9110   30.4060    6.0410 C.3   116  GLU116      0.0429
    110  CG        16.5200   29.2120    5.2520 C.3   116  GLU116      0.1163
    111  CD        17.9140   29.3530    4.7580 C.2   116  GLU116      0.3649
    112  OE1       18.4540   28.4540    4.1200 O.co2 116  GLU116     -0.2457
    113  OE2       18.4920   30.4320    5.0680 O.co2 116  GLU116     -0.2457
    114  N         14.5240   29.2230    8.6010 N.am  117  ILE117     -0.1977
    115  CA        14.3740   28.0780    9.5410 C.3   117  ILE117      0.1596
    116  C         12.9260   27.6510    9.5920 C.2   117  ILE117      0.2287
    117  O         12.6490   26.4200    9.6210 O.2   117  ILE117     -0.2864
    118  CB        14.9570   28.5600   10.9240 C.3   117  ILE117      0.0276
    119  CG1       16.4580   28.8780   10.7820 C.3   117  ILE117      0.0022
    120  CG2       14.6670   27.5250   12.0620 C.3   117  ILE117      0.0022
    121  CD1       17.3940   27.7070   10.3970 C.3   117  ILE117      0.0001
    122  N         12.1370   25.4560    6.5750 N.3   120  GLU120     -0.1245
    123  CA        12.7510   24.1470    6.6040 C.3   120  GLU120      0.1567
    124  C         12.1860   23.2250    7.6870 C.2   120  GLU120      0.2260
    125  O         12.3850   21.9710    7.5800 O.2   120  GLU120     -0.2867
    126  CB        14.2610   24.1890    6.8940 C.3   120  GLU120      0.0388
    127  CG        15.1140   24.8330    5.7810 C.3   120  GLU120      0.1160
    128  CD        16.5450   25.0970    6.2050 C.2   120  GLU120      0.3649
    129  OE1       16.8140   26.0380    6.9240 O.co2 120  GLU120     -0.2457
    130  OE2       17.3440   24.2370    5.7810 O.co2 120  GLU120     -0.2457
    131  N          8.4410   41.8620    3.1640 N.3   146  ASP146     -0.1225
    132  CA         9.0600   40.9980    2.1410 C.3   146  ASP146      0.1805
    133  C          9.3020   39.5760    2.6080 C.2   146  ASP146      0.2598
    134  O         10.1850   38.8420    2.0570 O.2   146  ASP146     -0.2718
    135  CB        10.3790   41.6990    1.6870 C.3   146  ASP146      0.1424
    136  CG        11.3910   41.8240    2.7770 C.2   146  ASP146      0.3668
    137  OD1       11.2720   41.2510    3.8860 O.co2 146  ASP146     -0.2456
    138  OD2       12.4100   42.5530    2.5870 O.co2 146  ASP146     -0.2456
    139  N          8.6630   39.1790    3.6920 N.am  147  THR147     -0.1953
    140  CA         8.8910   37.8230    4.2630 C.3   147  THR147      0.1897
    141  C          7.5560   37.3140    4.7740 C.2   147  THR147      0.2313
    142  O          6.8650   38.0240    5.5060 O.2   147  THR147     -0.2863
    143  CB         9.9830   37.9310    5.3850 C.3   147  THR147      0.1794
    144  OG1       11.1390   38.5870    4.7810 O.3   147  THR147     -0.2208
    145  CG2       10.4150   36.5980    5.9670 C.3   147  THR147      0.0378
@<TRIPOS>BOND
     1     9     8    1
     2   135   132    1
     3   135   136    1
     4   134   133    2
     5   132   133    1
     6   132   131    1
     7     8     7    1
     8   138   136   ar
     9   133   139   am
    10   136   137   ar
    11     7     6    1
    12   139   140    1
    13   112   111   ar
    14   140   141    1
    15   140   143    1
    16    66    67    2
    17    66    65    1
    18    69    67    1
    19    67    68    1
    20    65    64    1
    21     6     5    1
    22   111   113   ar
    23   111   110    1
    24   141   142    2
    25   144   143    1
    26    37    36    1
    27   110   109    1
    28   143   145    1
    29   127   128    1
    30   127   126    1
    31   130   128   ar
    32     1     2    1
    33    64    63    1
    34     5     2    1
    35     2     3    1
    36   109   106    1
    37    63    60    1
    38   128   129   ar
    39    36    35    1
    40   106   105    1
    41   106   107    1
    42   122   123    1
    43   123   126    1
    44   123   124    1
    45   104   101    1
    46   108   107    2
    47   105   102   am
    48   103   102    2
    49    75    74    1
    50    62    61    2
    51     3    10   am
    52     3     4    2
    53   102   101    1
    54   107   114   am
    55    35    34    1
    56    60    61    1
    57    60    59    1
    58   125   124    2
    59    10    11    1
    60    27    26    1
    61    61    70   am
    62   101   100    1
    63    59    55   am
    64    70    71    1
    65    71    74    1
    66    71    72    1
    67   114   115    1
    68    34    33    1
    69    11    12    1
    70    26    25    2
    71    26    28    1
    72   100    98   am
    73    95    93    1
    74    79    78    2
    75   115   116    1
    76   115   118    1
    77    25    24    1
    78   116   117    2
    79    55    56    2
    80    55    54    1
    81    33    30    1
    82    86    83    1
    83    86    87    1
    84    58    57    1
    85    72    73    2
    86    98    99    2
    87    98    97    1
    88    93    92    1
    89    12    13    2
    90   121   119    1
    91    83    82    1
    92    83    84    1
    93    54    57    1
    94    54    53    1
    95    92    94    1
    96    92    89    1
    97    78    82   am
    98    78    77    1
    99    88    84   am
   100    88    89    1
   101   119   118    1
   102    24    23    1
   103   118   120    1
   104    30    29    1
   105    30    31    1
   106    97    96    1
   107    29    20   am
   108    80    77    1
   109    80    81    1
   110    84    85    2
   111    89    90    1
   112    22    23    1
   113    22    19    1
   114    53    47   am
   115    77    76    1
   116    48    47    2
   117    47    46    1
   118    18    19    1
   119    18    16   am
   120    31    32    2
   121    31    38   am
   122    90    91    2
   123    20    19    1
   124    20    21    2
   125    49    46    1
   126    49    50    1
   127    15    16    1
   128    15    14    1
   129    52    50    1
   130    51    50    1
   131    38    39    1
   132    16    17    2
   133    43    42    1
   134    46    45    1
   135    39    42    1
   136    39    40    1
   137    42    44    1
   138    40    41    2
