@<TRIPOS>MOLECULE
tmp/1ia4B01.pdb
 153 145 0 0 0
SMALL
GASTEIGER

@<TRIPOS>ATOM
      1  N          7.1030   28.6350   17.0260 N.3     9  ILE9       -0.1231
      2  CA         6.3790   29.7710   17.5850 C.3     9  ILE9        0.1692
      3  C          6.6230   30.9390   16.6240 C.2     9  ILE9        0.2592
      4  O          7.7670   31.2380   16.2790 O.2     9  ILE9       -0.2718
      5  CB         6.7400   30.0190   19.0660 C.3     9  ILE9        0.0266
      6  CG1        5.8810   31.1470   19.6770 C.3     9  ILE9        0.0019
      7  CG2        8.2660   30.3560   19.2500 C.3     9  ILE9        0.0020
      8  CD1        5.7130   31.1950   21.2120 C.3     9  ILE9        0.0001
      9  N          5.5200   31.5780   16.2410 N.am   10  VAL10      -0.1966
     10  CA         5.6250   32.6920   15.2320 C.3    10  VAL10       0.1727
     11  C          4.4840   33.6830   15.4010 C.2    10  VAL10       0.2616
     12  O          3.4350   33.3800   15.9790 O.2    10  VAL10      -0.2715
     13  CB         5.6340   31.9660   13.8740 C.3    10  VAL10       0.0290
     14  CG1        4.3060   31.2000   13.5870 C.3    10  VAL10       0.0023
     15  CG2        5.9360   32.9140   12.7220 C.3    10  VAL10       0.0023
     16  N          4.7190   34.9220   14.9620 N.am   11  ALA11      -0.1977
     17  CA         3.6970   36.0010   15.0100 C.3    11  ALA11       0.1597
     18  C          3.6050   36.4850   13.5260 C.2    11  ALA11       0.2287
     19  O          4.6500   36.7470   12.9310 O.2    11  ALA11      -0.2864
     20  CB         4.1830   37.1660   15.8810 C.3    11  ALA11       0.0319
     21  N          5.6040   38.0420    8.0800 N.3    19  ILE19      -0.1231
     22  CA         6.3930   37.9090    9.2960 C.3    19  ILE19       0.1692
     23  C          7.4720   38.9170    9.4650 C.2    19  ILE19       0.2592
     24  O          8.0150   39.0080   10.5800 O.2    19  ILE19      -0.2718
     25  CB         6.9230   36.4290    9.5070 C.3    19  ILE19       0.0266
     26  CG1        7.7730   36.0120    8.3030 C.3    19  ILE19       0.0019
     27  CG2        5.7030   35.4720    9.6770 C.3    19  ILE19       0.0020
     28  CD1        8.5370   34.6760    8.3740 C.3    19  ILE19       0.0001
     29  N          7.8290   39.6520    8.4110 N.am   20  GLY20      -0.1957
     30  CA         8.9470   40.5980    8.5740 C.3    20  GLY20       0.1869
     31  C          9.1470   41.4530    7.3420 C.2    20  GLY20       0.2309
     32  O          8.5360   41.2410    6.3180 O.2    20  GLY20      -0.2863
     33  N         14.2900   42.0100    7.6130 N.3    23  GLY23      -0.1210
     34  CA        14.7940   41.3620    8.8220 C.3    23  GLY23       0.1956
     35  C         14.2390   41.7810   10.1340 C.2    23  GLY23       0.2612
     36  O         14.7790   41.3240   11.1920 O.2    23  GLY23      -0.2717
     37  N         13.1670   42.5340   10.1580 N.am   24  LYS24      -0.1965
     38  CA        12.5620   42.9810   11.4650 C.3    24  LYS24       0.1728
     39  C         11.0650   42.7180   11.4060 C.2    24  LYS24       0.2616
     40  O         10.4890   42.7060   10.3050 O.2    24  LYS24      -0.2715
     41  CB        12.7590   44.5160   11.4950 C.3    24  LYS24       0.0311
     42  CG        12.2630   45.2520   12.7520 C.3    24  LYS24       0.0038
     43  CD        13.0690   44.8710   13.9760 C.3    24  LYS24       0.0206
     44  CE        12.4580   45.3660   15.2820 C.3    24  LYS24       0.1093
     45  NZ        11.3630   44.4090   15.6490 N.3    24  LYS24      -0.1314
     46  N         10.4420   42.5970   12.5680 N.am   25  MET25      -0.1977
     47  CA         8.9540   42.4610   12.5750 C.3    25  MET25       0.1605
     48  C          8.4770   43.9190   12.4020 C.2    25  MET25       0.2287
     49  O          9.0020   44.8390   13.0670 O.2    25  MET25      -0.2864
     50  CB         8.4070   41.8570   13.8490 C.3    25  MET25       0.0413
     51  CG         8.6180   40.3910   14.0060 C.3    25  MET25       0.0598
     52  SD         8.1340   39.8620   15.7170 S.3    25  MET25      -0.1393
     53  CE         9.5720   40.5920   16.5410 C.3    25  MET25       0.0692
     54  N          2.7040   40.8800   23.3680 N.3    32  GLU32      -0.1231
     55  CA         3.1090   39.7200   22.5340 C.3    32  GLU32       0.1699
     56  C          4.5260   39.2960   22.8040 C.2    32  GLU32       0.2592
     57  O          4.7700   38.0810   22.9410 O.2    32  GLU32      -0.2718
     58  CB         2.8970   40.0270   21.0600 C.3    32  GLU32       0.0402
     59  CG         2.5970   38.8030   20.1700 C.3    32  GLU32       0.1161
     60  CD         3.7260   37.8430   19.9260 C.2    32  GLU32       0.3649
     61  OE1        4.8990   38.1990   19.7770 O.co2  32  GLU32      -0.2457
     62  OE2        3.3730   36.6490   19.8410 O.co2  32  GLU32      -0.2457
     63  N          5.4430   40.2200   23.0470 N.am   33  ILE33      -0.1980
     64  CA         6.8410   39.8350   23.4020 C.3    33  ILE33       0.1595
     65  C          6.8790   39.1650   24.7770 C.2    33  ILE33       0.2287
     66  O          7.7220   38.2990   25.0010 O.2    33  ILE33      -0.2864
     67  CB         7.7730   41.1110   23.3980 C.3    33  ILE33       0.0276
     68  CG1        7.7390   41.7040   21.9780 C.3    33  ILE33       0.0022
     69  CG2        9.2600   40.7170   23.7560 C.3    33  ILE33       0.0022
     70  CD1        8.2010   43.1730   21.8980 C.3    33  ILE33       0.0001
     71  N          4.2780   37.3620   26.0040 N.3    35  TYR35      -0.1227
     72  CA         3.7790   35.9650   25.8160 C.3    35  TYR35       0.1736
     73  C          4.9340   35.1070   25.2920 C.2    35  TYR35       0.2595
     74  O          5.0970   33.9560   25.7690 O.2    35  TYR35      -0.2718
     75  CB         2.6630   35.9420   24.8300 C.3    35  TYR35       0.0548
     76  CG         2.1730   34.5880   24.3590 C.ar   35  TYR35      -0.0200
     77  CD1        2.5950   34.0720   23.1220 C.ar   35  TYR35      -0.0009
     78  CD2        1.1820   33.9570   25.0950 C.ar   35  TYR35      -0.0009
     79  CE1        2.0320   32.8600   22.6740 C.ar   35  TYR35       0.0417
     80  CE2        0.6570   32.7290   24.6770 C.ar   35  TYR35       0.0417
     81  CZ         1.0660   32.2190   23.4520 C.ar   35  TYR35       0.1957
     82  OH         0.5630   31.0110   23.1120 O.3    35  TYR35      -0.2866
     83  N          5.6900   35.5980   24.3120 N.am   36  PHE36      -0.1976
     84  CA         6.8210   34.8120   23.7640 C.3    36  PHE36       0.1639
     85  C          7.7680   34.3280   24.8780 C.2    36  PHE36       0.2290
     86  O          8.2200   33.1750   24.9390 O.2    36  PHE36      -0.2864
     87  CB         7.5790   35.6470   22.7020 C.3    36  PHE36       0.0560
     88  CG         8.8450   35.0250   22.1830 C.ar   36  PHE36      -0.0200
     89  CD1       10.0830   35.4920   22.6570 C.ar   36  PHE36      -0.0042
     90  CD2        8.8200   33.9150   21.3430 C.ar   36  PHE36      -0.0042
     91  CE1       11.2480   34.8720   22.2690 C.ar   36  PHE36      -0.0003
     92  CE2        9.9950   33.3000   20.9280 C.ar   36  PHE36      -0.0003
     93  CZ        11.2120   33.7640   21.4110 C.ar   36  PHE36      -0.0000
     94  N         18.9360   35.5420   12.8440 N.3    58  THR58      -0.1218
     95  CA        18.0890   36.0390   13.9660 C.3    58  THR58       0.1862
     96  C         19.0250   36.2790   15.1540 C.2    58  THR58       0.2287
     97  O         18.9170   37.2820   15.8950 O.2    58  THR58      -0.2866
     98  CB        16.9530   35.0250   14.2810 C.3    58  THR58       0.1770
     99  OG1       16.1060   34.9030   13.0830 O.3    58  THR58      -0.2211
    100  CG2       16.1660   35.2970   15.5480 C.3    58  THR58       0.0375
    101  N         20.8470   39.3890   15.1240 N.3    61  SER61      -0.1217
    102  CA        19.9670   40.5550   15.1950 C.3    61  SER61       0.1889
    103  C         19.5990   40.9610   16.5970 C.2    61  SER61       0.2288
    104  O         18.7830   41.9030   16.8070 O.2    61  SER61      -0.2866
    105  CB        18.8450   40.4430   14.1560 C.3    61  SER61       0.2089
    106  OG        17.7150   39.8240   14.7380 O.3    61  SER61      -0.2183
    107  N         12.2840   29.2740   16.9340 N.3   112  ILE112     -0.1231
    108  CA        11.8340   30.6500   17.0600 C.3   112  ILE112      0.1692
    109  C         11.9610   31.5240   15.8220 C.2   112  ILE112      0.2593
    110  O         11.3530   32.6080   15.8080 O.2   112  ILE112     -0.2718
    111  CB        12.4470   31.3350   18.3540 C.3   112  ILE112      0.0266
    112  CG1       13.9890   31.4880   18.1630 C.3   112  ILE112      0.0019
    113  CG2       12.1220   30.5190   19.6130 C.3   112  ILE112      0.0020
    114  CD1       14.5430   32.6180   19.1180 C.3   112  ILE112      0.0001
    115  N         12.7820   31.0950   14.8610 N.am  113  GLY113     -0.1942
    116  CA        12.9550   31.9470   13.6380 C.3   113  GLY113      0.2014
    117  C         14.3260   31.7480   13.0360 C.2   113  GLY113      0.2639
    118  O         15.0930   30.9410   13.5480 O.2   113  GLY113     -0.2714
    119  N         14.6660   32.3710   11.9100 N.am  114  GLY114     -0.1939
    120  CA        13.8130   33.2910   11.1770 C.3   114  GLY114      0.2014
    121  C         13.0600   32.4670   10.0640 C.2   114  GLY114      0.2638
    122  O         12.6820   31.3160   10.1610 O.2   114  GLY114     -0.2714
    123  N         12.7950   33.2430    9.0080 N.am  115  ALA115     -0.1977
    124  CA        12.0670   32.7670    7.8420 C.3   115  ALA115      0.1597
    125  C         12.5690   31.4740    7.2880 C.2   115  ALA115      0.2287
    126  O         11.8040   30.5180    7.0630 O.2   115  ALA115     -0.2864
    127  CB        12.2580   33.8670    6.7560 C.3   115  ALA115      0.0319
    128  N         11.9800   28.5980    9.5680 N.3   118  TYR118     -0.1241
    129  CA        10.5730   28.1790    9.6600 C.3   118  TYR118      0.1605
    130  C         10.2350   27.2480    8.4790 C.2   118  TYR118      0.2264
    131  O          9.6300   26.1890    8.5990 O.2   118  TYR118     -0.2867
    132  CB         9.5850   29.2890    9.7640 C.3   118  TYR118      0.0534
    133  CG         9.6020   30.2640   10.8930 C.ar  118  TYR118     -0.0201
    134  CD1        9.6370   29.8210   12.2540 C.ar  118  TYR118     -0.0009
    135  CD2        9.4710   31.6320   10.6420 C.ar  118  TYR118     -0.0009
    136  CE1        9.6140   30.7360   13.2790 C.ar  118  TYR118      0.0417
    137  CE2        9.4460   32.5550   11.7050 C.ar  118  TYR118      0.0417
    138  CZ         9.4780   32.0900   13.0080 C.ar  118  TYR118      0.1957
    139  OH         9.4870   33.0280   14.0050 O.3   118  TYR118     -0.2866
    140  N          0.7040   33.5160   16.6290 N.3   133  THR133     -0.1218
    141  CA        -0.0130   34.6980   17.0850 C.3   133  THR133      0.1862
    142  C         -0.5850   35.3490   15.7450 C.2   133  THR133      0.2287
    143  O          0.2220   35.7300   14.9080 O.2   133  THR133     -0.2866
    144  CB         0.8710   35.7740   17.8070 C.3   133  THR133      0.1770
    145  OG1        1.3430   35.0140   18.9680 O.3   133  THR133     -0.2211
    146  CG2       -0.0260   36.9400   18.3010 C.3   133  THR133      0.0375
    147  N          8.6630   39.1790    3.6920 N.3   147  THR147     -0.1218
    148  CA         8.8910   37.8230    4.2630 C.3   147  THR147      0.1862
    149  C          7.5560   37.3140    4.7740 C.2   147  THR147      0.2287
    150  O          6.8650   38.0240    5.5060 O.2   147  THR147     -0.2866
    151  CB         9.9830   37.9310    5.3850 C.3   147  THR147      0.1770
    152  OG1       11.1390   38.5870    4.7810 O.3   147  THR147     -0.2211
    153  CG2       10.4150   36.5980    5.9670 C.3   147  THR147      0.0375
@<TRIPOS>BOND
     1   147   148    1
     2   148   149    1
     3   148   151    1
     4   149   150    2
     5   152   151    1
     6   151   153    1
     7    32    31    2
     8   127   124    1
     9   126   125    2
    10   125   124    1
    11    31    30    1
    12    33    34    1
    13   124   123    1
    14    21    22    1
    15    26    28    1
    16    26    25    1
    17    29    30    1
    18    29    23   am
    19   130   131    2
    20   130   129    1
    21    34    35    1
    22   123   121   am
    23    22    23    1
    24    22    25    1
    25    23    24    2
    26    25    27    1
    27   128   129    1
    28   129   132    1
    29   132   133    1
    30   121   122    2
    31   121   120    1
    32    35    37   am
    33    35    36    2
    34    37    38    1
    35    40    39    2
    36   135   133   ar
    37   135   137   ar
    38   133   134   ar
    39   120   119    1
    40    39    38    1
    41    39    46   am
    42    38    41    1
    43    41    42    1
    44   137   138   ar
    45   119   117   am
    46   134   136   ar
    47    48    47    1
    48    48    49    2
    49    46    47    1
    50    47    50    1
    51    15    13    1
    52    42    43    1
    53    94    95    1
    54    19    18    2
    55   138   136   ar
    56   138   139    1
    57   117   118    2
    58   117   116    1
    59    99    98    1
    60    18    17    1
    61    14    13    1
    62   116   115    1
    63    50    51    1
    64    13    10    1
    65    95    98    1
    66    95    96    1
    67    43    44    1
    68    51    52    1
    69   105   106    1
    70   105   102    1
    71    98   100    1
    72   115   109   am
    73   143   142    2
    74    16    17    1
    75    16    11   am
    76    17    20    1
    77   101   102    1
    78    96    97    2
    79   102   103    1
    80    10    11    1
    81    10     9    1
    82    44    45    1
    83    11    12    2
    84    52    53    1
    85   142   141    1
    86   110   109    2
    87   109   108    1
    88     9     3   am
    89     4     3    2
    90   103   104    2
    91     3     2    1
    92   140   141    1
    93   107   108    1
    94     1     2    1
    95   108   111    1
    96   141   144    1
    97     2     5    1
    98   144   146    1
    99   144   145    1
   100   112   111    1
   101   112   114    1
   102   111   113    1
   103     5     7    1
   104     5     6    1
   105     6     8    1
   106    61    60   ar
   107    62    60   ar
   108    60    59    1
   109    59    58    1
   110    92    90   ar
   111    92    93   ar
   112    58    55    1
   113    90    88   ar
   114    93    91   ar
   115    70    68    1
   116    68    67    1
   117    88    89   ar
   118    88    87    1
   119    91    89   ar
   120    55    56    1
   121    55    54    1
   122    79    77   ar
   123    79    81   ar
   124    87    84    1
   125    56    57    2
   126    56    63   am
   127    63    64    1
   128    82    81    1
   129    77    76   ar
   130    67    64    1
   131    67    69    1
   132    64    65    1
   133    81    80   ar
   134    84    83    1
   135    84    85    1
   136    83    73   am
   137    76    75    1
   138    76    78   ar
   139    80    78   ar
   140    65    66    2
   141    75    72    1
   142    85    86    2
   143    73    74    2
   144    73    72    1
   145    72    71    1
