@<TRIPOS>MOLECULE
tmp/1ia7A00.pdb
 144 140 0 0 0
SMALL
GASTEIGER

@<TRIPOS>ATOM
      1  N         10.1000   19.1330   44.0470 N.3    57  ALA57      -0.1245
      2  CA         8.8770   19.8970   43.8330 C.3    57  ALA57       0.1562
      3  C          7.6750   19.0090   43.5270 C.2    57  ALA57       0.2260
      4  O          7.1370   18.3400   44.4150 O.2    57  ALA57      -0.2867
      5  CB         9.1000   20.8890   42.6950 C.3    57  ALA57       0.0290
      6  N          8.0350   16.9630   41.0670 N.3    59  ASP59      -0.1239
      7  CA         8.7760   15.8310   40.5270 C.3    59  ASP59       0.1674
      8  C          9.4050   15.0460   41.6760 C.2    59  ASP59       0.2266
      9  O          9.1400   15.3250   42.8500 O.2    59  ASP59      -0.2867
     10  CB         9.8570   16.3130   39.5590 C.3    59  ASP59       0.1410
     11  CG        10.8310   17.2840   40.2050 C.2    59  ASP59       0.3668
     12  OD1       10.6260   17.6360   41.3840 O.co2  59  ASP59      -0.2456
     13  OD2       11.7970   17.6960   39.5280 O.co2  59  ASP59      -0.2456
     14  N         11.0660   13.6000   34.6170 N.3   126  HIS126     -0.1226
     15  CA         9.9130   14.3750   34.1860 C.3   126  HIS126      0.1752
     16  C          9.0720   13.7220   33.0880 C.2   126  HIS126      0.2596
     17  O          7.9500   14.1530   32.8260 O.2   126  HIS126     -0.2718
     18  CB        10.3730   15.7720   33.7620 C.3   126  HIS126      0.0759
     19  CG        10.9460   16.5750   34.8890 C.ar  126  HIS126      0.0818
     20  ND1       11.4910   17.8290   34.7130 N.ar  126  HIS126     -0.2268
     21  CD2       11.0480   16.3040   36.2120 C.ar  126  HIS126      0.1154
     22  CE1       11.9030   18.2950   35.8790 C.ar  126  HIS126      0.1986
     23  NE2       11.6450   17.3900   36.8050 N.ar  126  HIS126     -0.2212
     24  N          9.6050   12.6830   32.4520 N.am  127  THR127     -0.1953
     25  CA         8.8580   11.9860   31.4110 C.3   127  THR127      0.1897
     26  C          7.9230   10.9810   32.0810 C.2   127  THR127      0.2313
     27  O          7.1290   10.3180   31.4170 O.2   127  THR127     -0.2863
     28  CB         9.7840   11.2090   30.4570 C.3   127  THR127      0.1794
     29  OG1       10.4170   10.1410   31.1710 O.3   127  THR127     -0.2208
     30  CG2       10.8410   12.1310   29.8710 C.3   127  THR127      0.0378
     31  N          4.9380   10.1250   35.0320 N.3   129  TRP129     -0.1241
     32  CA         3.8530   10.7290   35.7940 C.3   129  TRP129      0.1605
     33  C          3.0580    9.6410   36.5000 C.2   129  TRP129      0.2264
     34  O          2.3020    8.9000   35.8750 O.2   129  TRP129     -0.2867
     35  CB         2.9230   11.5560   34.9070 C.3   129  TRP129      0.0550
     36  CG         1.9900   12.4010   35.7180 C.ar  129  TRP129      0.0003
     37  CD1        0.8490   11.9920   36.3520 C.ar  129  TRP129      0.0946
     38  CD2        2.1740   13.7780   36.0770 C.ar  129  TRP129      0.0152
     39  NE1        0.3170   13.0230   37.0870 N.ar  129  TRP129     -0.2442
     40  CE2        1.1100   14.1320   36.9370 C.ar  129  TRP129      0.0810
     41  CE3        3.1380   14.7450   35.7580 C.ar  129  TRP129      0.0012
     42  CZ2        0.9810   15.4130   37.4840 C.ar  129  TRP129      0.0191
     43  CZ3        3.0120   16.0230   36.3010 C.ar  129  TRP129      0.0001
     44  CH2        1.9380   16.3430   37.1550 C.ar  129  TRP129      0.0015
     45  N         17.8270   22.6120   35.4600 N.3   203  PHE203     -0.1241
     46  CA        16.7910   22.9030   36.4410 C.3   203  PHE203      0.1605
     47  C         17.2280   23.8520   37.5410 C.2   203  PHE203      0.2264
     48  O         16.4830   24.7460   37.9270 O.2   203  PHE203     -0.2867
     49  CB        16.2900   21.5820   37.0230 C.3   203  PHE203      0.0534
     50  CG        15.8390   20.6120   35.9670 C.ar  203  PHE203     -0.0203
     51  CD1       14.6400   20.8140   35.2900 C.ar  203  PHE203     -0.0042
     52  CD2       16.6530   19.5470   35.5870 C.ar  203  PHE203     -0.0042
     53  CE1       14.2590   19.9760   34.2480 C.ar  203  PHE203     -0.0003
     54  CE2       16.2800   18.7030   34.5420 C.ar  203  PHE203     -0.0003
     55  CZ        15.0790   18.9210   33.8710 C.ar  203  PHE203     -0.0000
     56  N          7.8750   33.3520   37.7570 N.3   304  TRP304     -0.1241
     57  CA         7.8600   31.9950   38.2920 C.3   304  TRP304      0.1605
     58  C          7.9890   31.9590   39.8140 C.2   304  TRP304      0.2264
     59  O          8.9230   32.5270   40.3770 O.2   304  TRP304     -0.2867
     60  CB         8.9880   31.1830   37.6570 C.3   304  TRP304      0.0550
     61  CG         8.6940   29.7300   37.6010 C.ar  304  TRP304      0.0003
     62  CD1        8.7300   28.8420   38.6360 C.ar  304  TRP304      0.0946
     63  CD2        8.2680   28.9940   36.4520 C.ar  304  TRP304      0.0152
     64  NE1        8.3490   27.5940   38.2020 N.ar  304  TRP304     -0.2442
     65  CE2        8.0600   27.6600   36.8640 C.ar  304  TRP304      0.0810
     66  CE3        8.0390   29.3330   35.1110 C.ar  304  TRP304      0.0012
     67  CZ2        7.6320   26.6610   35.9830 C.ar  304  TRP304      0.0191
     68  CZ3        7.6120   28.3400   34.2340 C.ar  304  TRP304      0.0001
     69  CH2        7.4140   27.0200   34.6750 C.ar  304  TRP304      0.0015
     70  N          0.5710   21.0210   40.4620 N.3   363  HIS363     -0.1241
     71  CA         1.5170   20.2720   39.6420 C.3   363  HIS363      0.1621
     72  C          2.3510   19.4460   40.6150 C.2   363  HIS363      0.2264
     73  O          3.4960   19.7750   40.9140 O.2   363  HIS363     -0.2867
     74  CB         2.4190   21.2170   38.8410 C.3   363  HIS363      0.0745
     75  CG         3.2900   20.5140   37.8450 C.ar  363  HIS363      0.0817
     76  ND1        2.7970   19.9730   36.6770 N.ar  363  HIS363     -0.2268
     77  CD2        4.6120   20.2250   37.8630 C.ar  363  HIS363      0.1154
     78  CE1        3.7770   19.3780   36.0200 C.ar  363  HIS363      0.1986
     79  NE2        4.8890   19.5160   36.7190 N.ar  363  HIS363     -0.2212
     80  N          2.9250   15.2390   41.3710 N.3   365  ARG365     -0.1245
     81  CA         2.6230   13.8580   41.0160 C.3   365  ARG365      0.1563
     82  C          1.9030   13.0320   42.0840 C.2   365  ARG365      0.2260
     83  O          0.8580   12.4500   41.8000 O.2   365  ARG365     -0.2867
     84  CB         3.9060   13.1500   40.5540 C.3   365  ARG365      0.0307
     85  CG         4.3970   13.6440   39.1840 C.3   365  ARG365      0.0489
     86  CD         5.7940   13.1450   38.8380 C.3   365  ARG365      0.2205
     87  NE         6.2090   13.5390   37.4870 N.pl3 365  ARG365     -0.0865
     88  CZ         6.4840   14.7850   37.1040 C.cat 365  ARG365      0.5346
     89  NH1        6.3980   15.7900   37.9680 N.pl3 365  ARG365      0.1354
     90  NH2        6.8440   15.0290   35.8460 N.pl3 365  ARG365      0.1354
     91  N         -0.3690    9.6700   32.9710 N.3   372  TYR372     -0.1241
     92  CA        -0.4770   10.3570   31.6850 C.3   372  TYR372      0.1605
     93  C         -1.5290    9.6970   30.7980 C.2   372  TYR372      0.2264
     94  O         -1.9740   10.2900   29.8150 O.2   372  TYR372     -0.2867
     95  CB         0.8550   10.3400   30.9270 C.3   372  TYR372      0.0534
     96  CG         1.8880   11.3580   31.3630 C.ar  372  TYR372     -0.0201
     97  CD1        1.5250   12.6680   31.6950 C.ar  372  TYR372     -0.0009
     98  CD2        3.2430   11.0290   31.3740 C.ar  372  TYR372     -0.0009
     99  CE1        2.4940   13.6240   32.0240 C.ar  372  TYR372      0.0417
    100  CE2        4.2140   11.9700   31.6990 C.ar  372  TYR372      0.0417
    101  CZ         3.8370   13.2630   32.0200 C.ar  372  TYR372      0.1957
    102  OH         4.8100   14.1910   32.3210 O.3   372  TYR372     -0.2866
    103  N         -4.0680   13.0750   34.1270 N.3   377  ASN377     -0.1240
    104  CA        -3.2920   13.9990   34.9460 C.3   377  ASN377      0.1653
    105  C         -3.8530   15.4220   34.8960 C.2   377  ASN377      0.2266
    106  O         -3.3950   16.3030   35.6270 O.2   377  ASN377     -0.2867
    107  CB        -1.8330   14.0060   34.4820 C.3   377  ASN377      0.1155
    108  CG        -1.6880   14.3680   33.0160 C.2   377  ASN377      0.2627
    109  OD1       -2.1280   13.6300   32.1360 O.2   377  ASN377     -0.2716
    110  ND2       -1.0700   15.5120   32.7460 N.am  377  ASN377     -0.0877
    111  N         -2.8060   22.2280   35.7870 N.3   403  ALA403     -0.1231
    112  CA        -1.5770   21.4800   36.0290 C.3   403  ALA403      0.1694
    113  C         -0.4960   21.7110   34.9740 C.2   403  ALA403      0.2592
    114  O          0.6950   21.5800   35.2670 O.2   403  ALA403     -0.2718
    115  CB        -1.8900   19.9910   36.1360 C.3   403  ALA403      0.0304
    116  N         -0.8980   22.0470   33.7500 N.am  404  ASN404     -0.1974
    117  CA         0.0760   22.2900   32.6870 C.3   404  ASN404      0.1688
    118  C          0.8040   23.6170   32.8660 C.2   404  ASN404      0.2292
    119  O          1.9470   23.7690   32.4320 O.2   404  ASN404     -0.2864
    120  CB        -0.5950   22.2630   31.3110 C.3   404  ASN404      0.1181
    121  CG        -0.9330   20.8610   30.8590 C.2   404  ASN404      0.2629
    122  OD1       -0.0890   19.9610   30.9060 O.2   404  ASN404     -0.2716
    123  ND2       -2.1640   20.6630   30.4060 N.am  404  ASN404     -0.0877
    124  N          2.7810   25.2170   34.8690 N.3   406  TYR406     -0.1241
    125  CA         3.6790   25.0420   36.0080 C.3   406  TYR406      0.1605
    126  C          3.9150   26.3540   36.7480 C.2   406  TYR406      0.2264
    127  O          4.0050   26.3740   37.9760 O.2   406  TYR406     -0.2867
    128  CB         5.0440   24.4940   35.5640 C.3   406  TYR406      0.0534
    129  CG         5.0270   23.5590   34.3770 C.ar  406  TYR406     -0.0201
    130  CD1        4.1310   22.4930   34.3100 C.ar  406  TYR406     -0.0009
    131  CD2        5.9260   23.7330   33.3240 C.ar  406  TYR406     -0.0009
    132  CE1        4.1290   21.6210   33.2200 C.ar  406  TYR406      0.0417
    133  CE2        5.9350   22.8680   32.2300 C.ar  406  TYR406      0.0417
    134  CZ         5.0340   21.8140   32.1850 C.ar  406  TYR406      0.1957
    135  OH         5.0330   20.9550   31.1060 O.3   406  TYR406     -0.2866
    136  N          2.8120   24.8410   40.2540 N.3   410  GLU410     -0.1245
    137  CA         3.7410   23.9250   40.8930 C.3   410  GLU410      0.1567
    138  C          4.0450   24.3500   42.3260 C.2   410  GLU410      0.2260
    139  O          3.8200   25.5000   42.7060 O.2   410  GLU410     -0.2867
    140  CB         5.0290   23.7610   40.0810 C.3   410  GLU410      0.0388
    141  CG         5.9210   22.6370   40.6330 C.3   410  GLU410      0.1160
    142  CD         6.8910   22.0690   39.6050 C.2   410  GLU410      0.3649
    143  OE1        7.3730   22.8450   38.7550 O.co2 410  GLU410     -0.2457
    144  OE2        7.1800   20.8490   39.6590 O.co2 410  GLU410     -0.2457
@<TRIPOS>BOND
     1    94    93    2
     2    30    28    1
     3   123   121   am
     4    28    29    1
     5    28    25    1
     6    93    92    1
     7   121   122    2
     8   121   120    1
     9    95    96    1
    10    95    92    1
    11   135   134    1
    12   120   117    1
    13    96    98   ar
    14    96    97   ar
    15    98   100   ar
    16    25    26    1
    17    25    24    1
    18    27    26    2
    19    92    91    1
    20    97    99   ar
    21   100   101   ar
    22   101    99   ar
    23   101   102    1
    24   109   108    2
    25   134   133   ar
    26   134   132   ar
    27   133   131   ar
    28   119   118    2
    29    24    16   am
    30   117   118    1
    31   117   116    1
    32   110   108   am
    33    17    16    2
    34   108   107    1
    35    16    15    1
    36   132   130   ar
    37   131   129   ar
    38   116   113   am
    39    18    15    1
    40    18    19    1
    41    55    53   ar
    42    55    54   ar
    43   103   104    1
    44    15    14    1
    45    68    69   ar
    46    68    66   ar
    47    53    51   ar
    48   130   129   ar
    49   129   128    1
    50   107   104    1
    51    54    52   ar
    52    69    67   ar
    53    20    19   ar
    54    20    22   ar
    55   124   125    1
    56    19    21   ar
    57   105   104    1
    58   105   106    2
    59    35    36    1
    60    35    32    1
    61   113   114    2
    62   113   112    1
    63    31    32    1
    64    66    63   ar
    65    51    50   ar
    66    45    46    1
    67   128   125    1
    68    52    50   ar
    69    36    38   ar
    70    36    37   ar
    71    41    38   ar
    72    41    43   ar
    73   111   112    1
    74    32    33    1
    75    90    88    1
    76    34    33    2
    77    22    23   ar
    78    50    49    1
    79    67    65   ar
    80   125   126    1
    81    78    76   ar
    82    78    79   ar
    83   112   115    1
    84    38    40   ar
    85    21    23   ar
    86    43    44   ar
    87    37    39   ar
    88    46    49    1
    89    46    47    1
    90    63    65   ar
    91    63    61   ar
    92    76    75   ar
    93    79    77   ar
    94   126   127    2
    95    65    64   ar
    96    40    39   ar
    97    40    42   ar
    98    88    87    2
    99    88    89    1
   100    44    42   ar
   101    87    86    1
   102    47    48    2
   103    61    60    1
   104    61    62   ar
   105    60    57    1
   106    56    57    1
   107    75    77   ar
   108    75    74    1
   109    64    62   ar
   110    57    58    1
   111   143   142   ar
   112    86    85    1
   113    74    71    1
   114    85    84    1
   115    13    11   ar
   116    10    11    1
   117    10     7    1
   118   142   144   ar
   119   142   141    1
   120    71    70    1
   121    71    72    1
   122    58    59    2
   123   140   141    1
   124   140   137    1
   125    11    12   ar
   126   136   137    1
   127     7     6    1
   128     7     8    1
   129    84    81    1
   130    72    73    2
   131   137   138    1
   132    81    80    1
   133    81    82    1
   134     8     9    2
   135    83    82    2
   136   138   139    2
   137     5     2    1
   138     3     2    1
   139     3     4    2
   140     2     1    1
