@<TRIPOS>MOLECULE
tmp/1ia9A00.pdb
 186 172 0 0 0
SMALL
GASTEIGER

@<TRIPOS>ATOM
      1  N         44.1160   74.4580   92.4430 N.3    64  LYS64      -0.1245
      2  CA        42.8630   75.2020   92.5630 C.3    64  LYS64       0.1561
      3  C         41.7300   74.6480   91.7180 C.2    64  LYS64       0.2260
      4  O         40.6160   74.4560   92.2190 O.2    64  LYS64      -0.2867
      5  CB        43.1140   76.6600   92.2010 C.3    64  LYS64       0.0271
      6  CG        44.1650   77.3020   93.0880 C.3    64  LYS64       0.0035
      7  CD        44.7400   78.5640   92.4730 C.3    64  LYS64       0.0206
      8  CE        45.5650   79.3600   93.4780 C.3    64  LYS64       0.1093
      9  NZ        45.9260   80.7030   92.9340 N.3    64  LYS64      -0.1314
     10  N         40.1050   77.8190   92.1010 N.3    65  MET65      -0.1230
     11  CA        39.8520   79.2210   92.4100 C.3    65  MET65       0.1702
     12  C         38.4090   79.6280   92.1800 C.2    65  MET65       0.2593
     13  O         37.7790   79.2220   91.2030 O.2    65  MET65      -0.2718
     14  CB        40.7630   80.1250   91.5860 C.3    65  MET65       0.0401
     15  CG        42.2000   80.0810   92.0360 C.3    65  MET65       0.0596
     16  SD        43.2990   81.1520   91.0890 S.3    65  MET65      -0.1393
     17  CE        43.5170   80.1760   89.6110 C.3    65  MET65       0.0692
     18  N         37.9010   80.4580   93.0820 N.am   66  GLY66      -0.1942
     19  CA        36.5270   80.8920   92.9780 C.3    66  GLY66       0.2014
     20  C         36.3420   82.3770   93.1710 C.2    66  GLY66       0.2639
     21  O         37.0750   83.0240   93.9160 O.2    66  GLY66      -0.2714
     22  N         35.3620   82.9120   92.4600 N.am   67  GLY67      -0.1939
     23  CA        35.0320   84.3150   92.5610 C.3    67  GLY67       0.2014
     24  C         33.5250   84.3230   92.6720 C.2    67  GLY67       0.2639
     25  O         32.9630   83.6450   93.5360 O.2    67  GLY67      -0.2714
     26  N         32.8650   85.0570   91.7840 N.am   68  GLY68      -0.1939
     27  CA        31.4160   85.1170   91.8190 C.3    68  GLY68       0.2014
     28  C         30.7160   84.0120   91.0430 C.2    68  GLY68       0.2639
     29  O         30.0550   83.1430   91.6290 O.2    68  GLY68      -0.2714
     30  N         30.8730   84.0390   89.7210 N.am   69  LEU69      -0.1963
     31  CA        30.2200   83.0620   88.8540 C.3    69  LEU69       0.1728
     32  C         31.0890   81.9960   88.2120 C.2    69  LEU69       0.2616
     33  O         30.5970   81.2390   87.3700 O.2    69  LEU69      -0.2715
     34  CB        29.4780   83.7720   87.7190 C.3    69  LEU69       0.0311
     35  CG        28.9410   85.1870   87.9400 C.3    69  LEU69       0.0022
     36  CD1       29.8110   86.2050   87.2010 C.3    69  LEU69       0.0001
     37  CD2       27.5150   85.2630   87.4310 C.3    69  LEU69       0.0001
     38  N         32.3570   81.9050   88.5920 N.am   70  ARG70      -0.1977
     39  CA        33.2130   80.9160   87.9530 C.3    70  ARG70       0.1597
     40  C         34.1810   80.1520   88.8540 C.2    70  ARG70       0.2287
     41  O         34.5620   80.6160   89.9250 O.2    70  ARG70      -0.2864
     42  CB        33.9970   81.6080   86.8320 C.3    70  ARG70       0.0334
     43  CG        33.8540   80.9640   85.4710 C.3    70  ARG70       0.0492
     44  CD        33.4300   81.9770   84.4120 C.3    70  ARG70       0.2205
     45  NE        34.3510   83.1080   84.3170 N.pl3  70  ARG70      -0.0865
     46  CZ        35.0200   83.4530   83.2180 C.cat  70  ARG70       0.5346
     47  NH1       34.8870   82.7570   82.0980 N.pl3  70  ARG70       0.1354
     48  NH2       35.8240   84.5070   83.2350 N.pl3  70  ARG70       0.1354
     49  N         37.9360   78.3310   88.8210 N.3    72  ALA72      -0.1245
     50  CA        39.1760   78.4630   88.0650 C.3    72  ALA72       0.1562
     51  C         40.2560   77.4980   88.5540 C.2    72  ALA72       0.2260
     52  O         40.3720   77.2350   89.7410 O.2    72  ALA72      -0.2867
     53  CB        39.6760   79.8980   88.1540 C.3    72  ALA72       0.0290
     54  N         45.1840   79.7480   83.1900 N.3    92  ILE92      -0.1245
     55  CA        44.0800   79.5790   84.1210 C.3    92  ILE92       0.1561
     56  C         42.8740   79.1570   83.2660 C.2    92  ILE92       0.2260
     57  O         42.5480   79.8020   82.2790 O.2    92  ILE92      -0.2867
     58  CB        43.7450   80.9150   84.8450 C.3    92  ILE92       0.0252
     59  CG1       44.9690   81.4280   85.6070 C.3    92  ILE92       0.0019
     60  CG2       42.5910   80.7140   85.8190 C.3    92  ILE92       0.0019
     61  CD1       45.3370   80.6040   86.8280 C.3    92  ILE92       0.0001
     62  N         38.8140   78.4960   83.1650 N.3    94  LYS94      -0.1245
     63  CA        37.5830   78.8330   83.8830 C.3    94  LYS94       0.1561
     64  C         36.3030   78.2460   83.2690 C.2    94  LYS94       0.2260
     65  O         36.1410   78.2310   82.0520 O.2    94  LYS94      -0.2867
     66  CB        37.4490   80.3520   83.9460 C.3    94  LYS94       0.0271
     67  CG        38.7290   81.0590   84.3680 C.3    94  LYS94       0.0035
     68  CD        38.5840   82.5730   84.2890 C.3    94  LYS94       0.0206
     69  CE        39.8990   83.2480   84.6660 C.3    94  LYS94       0.1093
     70  NZ        39.7950   84.7410   84.6840 N.3    94  LYS94      -0.1314
     71  N         31.5380   85.6330   77.1150 N.3   120  GLU120     -0.1245
     72  CA        32.5060   86.0630   78.1250 C.3   120  GLU120      0.1567
     73  C         33.8060   86.4950   77.4420 C.2   120  GLU120      0.2260
     74  O         34.3880   87.5290   77.7710 O.2   120  GLU120     -0.2867
     75  CB        32.7980   84.9180   79.0990 C.3   120  GLU120      0.0388
     76  CG        33.5600   85.3290   80.3430 C.3   120  GLU120      0.1160
     77  CD        32.8160   86.3860   81.1500 C.2   120  GLU120      0.3649
     78  OE1       32.5240   87.4680   80.5970 O.co2 120  GLU120     -0.2457
     79  OE2       32.5200   86.1430   82.3390 O.co2 120  GLU120     -0.2457
     80  N         44.0030   90.8750   79.2110 N.3   149  LEU149     -0.1245
     81  CA        44.5610   89.6150   78.7110 C.3   149  LEU149      0.1561
     82  C         43.6680   89.0120   77.6260 C.2   149  LEU149      0.2260
     83  O         42.4420   89.1510   77.6810 O.2   149  LEU149     -0.2867
     84  CB        44.6560   88.5880   79.8450 C.3   149  LEU149      0.0270
     85  CG        45.5220   88.8610   81.0720 C.3   149  LEU149      0.0019
     86  CD1       45.4780   87.6490   81.9950 C.3   149  LEU149      0.0001
     87  CD2       46.9570   89.1530   80.6380 C.3   149  LEU149      0.0001
     88  N         43.1950   81.6090   79.6990 N.3   166  GLU166     -0.1231
     89  CA        44.0050   82.8210   79.5770 C.3   166  GLU166      0.1699
     90  C         45.3040   82.6600   80.3610 C.2   166  GLU166      0.2592
     91  O         45.3860   81.8490   81.2710 O.2   166  GLU166     -0.2718
     92  CB        43.2240   84.0080   80.1500 C.3   166  GLU166      0.0402
     93  CG        42.9720   83.8880   81.6570 C.3   166  GLU166      0.1161
     94  CD        41.8760   84.8330   82.1630 C.2   166  GLU166      0.3649
     95  OE1       40.7190   84.6720   81.7220 O.co2 166  GLU166     -0.2457
     96  OE2       42.1600   85.7270   82.9980 O.co2 166  GLU166     -0.2457
     97  N         46.3080   83.4660   80.0430 N.am  167  GLU167     -0.1966
     98  CA        47.5810   83.3600   80.7580 C.3   167  GLU167      0.1733
     99  C         47.4430   83.6120   82.2510 C.2   167  GLU167      0.2616
    100  O         46.6790   84.4850   82.6780 O.2   167  GLU167     -0.2715
    101  CB        48.6020   84.3460   80.1790 C.3   167  GLU167      0.0429
    102  CG        48.9900   84.0180   78.7520 C.3   167  GLU167      0.1163
    103  CD        50.3250   84.6000   78.3580 C.2   167  GLU167      0.3649
    104  OE1       51.3380   84.2560   79.0140 O.co2 167  GLU167     -0.2457
    105  OE2       50.3620   85.3880   77.3910 O.co2 167  GLU167     -0.2457
    106  N         48.1860   82.8550   83.0500 N.am  168  CYS168     -0.1954
    107  CA        48.1480   83.0360   84.4920 C.3   168  CYS168      0.1843
    108  C         49.0930   84.1860   84.8540 C.2   168  CYS168      0.2625
    109  O         50.2350   84.2090   84.4270 O.2   168  CYS168     -0.2714
    110  CB        48.5930   81.7550   85.1970 C.3   168  CYS168      0.0997
    111  SG        48.6510   81.8800   86.9980 S.3   168  CYS168     -0.0797
    112  N         48.6020   85.1560   85.6140 N.am  169  MET169     -0.1977
    113  CA        49.4380   86.2780   86.0150 C.3   169  MET169      0.1605
    114  C         50.0550   85.9450   87.3680 C.2   169  MET169      0.2287
    115  O         49.4530   85.2480   88.1820 O.2   169  MET169     -0.2864
    116  CB        48.6010   87.5650   86.1340 C.3   169  MET169      0.0413
    117  CG        48.0060   88.0620   84.8330 C.3   169  MET169      0.0598
    118  SD        47.0700   89.6270   85.0180 S.3   169  MET169     -0.1393
    119  CE        45.6480   89.0300   85.9010 C.3   169  MET169      0.0692
    120  N         46.7880   89.6500   93.1430 N.3   173  PHE173     -0.1241
    121  CA        45.5940   89.9190   92.3540 C.3   173  PHE173      0.1605
    122  C         44.6340   90.7840   93.1650 C.2   173  PHE173      0.2264
    123  O         44.2110   90.3980   94.2590 O.2   173  PHE173     -0.2867
    124  CB        44.9230   88.6010   91.9610 C.3   173  PHE173      0.0534
    125  CG        43.8590   88.7500   90.9120 C.ar  173  PHE173     -0.0203
    126  CD1       42.6010   89.2570   91.2390 C.ar  173  PHE173     -0.0042
    127  CD2       44.1070   88.3660   89.5960 C.ar  173  PHE173     -0.0042
    128  CE1       41.5980   89.3740   90.2660 C.ar  173  PHE173     -0.0003
    129  CE2       43.1150   88.4790   88.6170 C.ar  173  PHE173     -0.0003
    130  CZ        41.8550   88.9840   88.9550 C.ar  173  PHE173     -0.0000
    131  N         41.2530   93.9280   93.0550 N.3   175  LYS175     -0.1245
    132  CA        40.1310   94.5760   92.3880 C.3   175  LYS175      0.1561
    133  C         40.2260   96.0810   92.6530 C.2   175  LYS175      0.2260
    134  O         40.4070   96.4950   93.8000 O.2   175  LYS175     -0.2867
    135  CB        38.8380   94.0080   92.9670 C.3   175  LYS175      0.0271
    136  CG        37.6320   94.0630   92.0700 C.3   175  LYS175      0.0035
    137  CD        36.6480   93.0060   92.5290 C.3   175  LYS175      0.0206
    138  CE        35.5240   92.8200   91.5480 C.3   175  LYS175      0.1093
    139  NZ        34.9560   91.4420   91.6200 N.3   175  LYS175     -0.1314
    140  N         34.4480   96.5520   87.2070 N.3   213  ASP213     -0.1239
    141  CA        35.1040   95.3240   87.6640 C.3   213  ASP213      0.1674
    142  C         36.5340   95.2280   87.1680 C.2   213  ASP213      0.2266
    143  O         36.9670   94.1800   86.6880 O.2   213  ASP213     -0.2867
    144  CB        34.3270   94.0740   87.2220 C.3   213  ASP213      0.1410
    145  CG        33.6970   93.3390   88.3900 C.2   213  ASP213      0.3668
    146  OD1       33.8030   93.8380   89.5300 O.co2 213  ASP213     -0.2456
    147  OD2       33.0870   92.2700   88.1750 O.co2 213  ASP213     -0.2456
    148  N         40.1900   94.5810   87.4990 N.3   215  GLN215     -0.1245
    149  CA        40.9320   93.7490   88.4370 C.3   215  GLN215      0.1566
    150  C         42.0650   93.0140   87.7350 C.2   215  GLN215      0.2260
    151  O         42.0150   92.7560   86.5220 O.2   215  GLN215     -0.2867
    152  CB        39.9850   92.7340   89.0910 C.3   215  GLN215      0.0367
    153  CG        39.2650   91.8460   88.0940 C.3   215  GLN215      0.0905
    154  CD        38.1800   91.0020   88.7260 C.2   215  GLN215      0.2608
    155  OE1       38.3880   90.3840   89.7680 O.2   215  GLN215     -0.2717
    156  NE2       37.0070   90.9680   88.0920 N.am  215  GLN215     -0.0878
    157  N         46.6450   92.1990   88.0640 N.3   217  VAL217     -0.1245
    158  CA        47.9540   92.4120   88.6700 C.3   217  VAL217      0.1561
    159  C         48.6500   93.5310   87.9110 C.2   217  VAL217      0.2260
    160  O         48.8570   93.4260   86.7020 O.2   217  VAL217     -0.2867
    161  CB        48.8350   91.1290   88.5740 C.3   217  VAL217      0.0252
    162  CG1       50.1940   91.3760   89.2090 C.3   217  VAL217      0.0019
    163  CG2       48.1290   89.9590   89.2440 C.3   217  VAL217      0.0019
    164  N         41.7710   91.4770   83.7900 N.3   222  THR222     -0.1203
    165  CA        40.9640   90.3710   83.2740 C.3   222  THR222      0.1994
    166  C         39.6260   90.3880   83.9840 C.2   222  THR222      0.2617
    167  O         39.4690   91.0670   85.0030 O.2   222  THR222     -0.2717
    168  CB        41.6340   89.0010   83.5640 C.3   222  THR222      0.1784
    169  OG1       40.9430   87.9600   82.8540 O.3   222  THR222     -0.2211
    170  CG2       41.5630   88.6920   85.0560 C.3   222  THR222      0.0376
    171  N         38.6610   89.6320   83.4630 N.am  223  ASP223     -0.1973
    172  CA        37.3380   89.5360   84.0820 C.3   223  ASP223      0.1709
    173  C         36.5720   90.8610   84.2020 C.2   223  ASP223      0.2293
    174  O         35.9620   91.1160   85.2330 O.2   223  ASP223     -0.2864
    175  CB        37.4370   88.9630   85.4970 C.3   223  ASP223      0.1436
    176  CG        37.8360   87.4950   85.5340 C.2   223  ASP223      0.3671
    177  OD1       37.9830   86.8550   84.4710 O.co2 223  ASP223     -0.2456
    178  OD2       37.9950   86.9790   86.6630 O.co2 223  ASP223     -0.2456
    179  N         27.3370   89.9020   87.0430 N.3   243  ASN243     -0.1240
    180  CA        26.4630   90.2420   88.1590 C.3   243  ASN243      0.1653
    181  C         26.3050   91.7560   88.2870 C.2   243  ASN243      0.2266
    182  O         27.1460   92.4230   88.8840 O.2   243  ASN243     -0.2867
    183  CB        27.0570   89.6760   89.4490 C.3   243  ASN243      0.1155
    184  CG        27.0980   88.1630   89.4510 C.2   243  ASN243      0.2627
    185  OD1       27.9730   87.5530   90.0680 O.2   243  ASN243     -0.2716
    186  ND2       26.1400   87.5460   88.7670 N.am  243  ASN243     -0.0877
@<TRIPOS>BOND
     1    71    72    1
     2   105   103   ar
     3    73    74    2
     4    73    72    1
     5    82    83    2
     6    82    81    1
     7    72    75    1
     8   103   102    1
     9   103   104   ar
    10    81    80    1
    11    81    84    1
    12   102   101    1
    13    75    76    1
    14    89    88    1
    15    89    92    1
    16    89    90    1
    17    84    85    1
    18    97    90   am
    19    97    98    1
    20    92    93    1
    21   101    98    1
    22    76    77    1
    23    90    91    2
    24    78    77   ar
    25    87    85    1
    26    98    99    1
    27    85    86    1
    28    77    79   ar
    29    93    94    1
    30    95    94   ar
    31    65    64    2
    32    47    46    1
    33    94    96   ar
    34    99   100    2
    35    99   106   am
    36    57    56    2
    37   169   168    1
    38   106   107    1
    39    62    63    1
    40    54    55    1
    41    46    48    1
    42    46    45    2
    43    56    55    1
    44    64    63    1
    45   165   168    1
    46   165   164    1
    47   165   166    1
    48   171   166   am
    49   171   172    1
    50   168   170    1
    51    63    66    1
    52    66    67    1
    53   166   167    2
    54   172   173    1
    55   172   175    1
    56    55    58    1
    57   173   174    2
    58    68    67    1
    59    68    69    1
    60    45    44    1
    61    44    43    1
    62   109   108    2
    63   177   176   ar
    64   107   108    1
    65   107   110    1
    66    69    70    1
    67   117   118    1
    68   117   116    1
    69    58    59    1
    70    58    60    1
    71   108   112   am
    72   118   119    1
    73   110   111    1
    74    43    42    1
    75   175   176    1
    76   176   178   ar
    77    59    61    1
    78   112   113    1
    79   113   116    1
    80   113   114    1
    81   151   150    2
    82   143   142    2
    83   160   159    2
    84    42    39    1
    85   179   180    1
    86   142   141    1
    87    36    35    1
    88   140   141    1
    89   144   141    1
    90   144   145    1
    91   114   115    2
    92    33    32    2
    93    37    35    1
    94   148   149    1
    95    34    35    1
    96    34    31    1
    97   150   149    1
    98   159   158    1
    99    39    38    1
   100    39    40    1
   101   157   158    1
   102    50    53    1
   103    50    51    1
   104    50    49    1
   105   156   154   am
   106   153   154    1
   107   153   152    1
   108   180   181    1
   109   180   183    1
   110   147   145   ar
   111    32    38   am
   112    32    31    1
   113   181   182    2
   114   145   146   ar
   115   149   152    1
   116    51    52    2
   117   161   158    1
   118   161   162    1
   119   161   163    1
   120   129   130   ar
   121   129   127   ar
   122   154   155    2
   123   186   184   am
   124    31    30    1
   125    40    41    2
   126   130   128   ar
   127   183   184    1
   128   184   185    2
   129   127   125   ar
   130    17    16    1
   131    30    28   am
   132   128   126   ar
   133   125   126   ar
   134   125   124    1
   135    28    29    2
   136    28    27    1
   137    16    15    1
   138    13    12    2
   139   138   139    1
   140   138   137    1
   141    14    15    1
   142    14    11    1
   143     3     4    2
   144     3     2    1
   145    26    27    1
   146    26    24   am
   147   124   121    1
   148   136   137    1
   149   136   135    1
   150    10    11    1
   151    12    11    1
   152    12    18   am
   153     5     2    1
   154     5     6    1
   155   121   120    1
   156   121   122    1
   157   132   133    1
   158   132   135    1
   159   132   131    1
   160     1     2    1
   161    22    23    1
   162    22    20   am
   163     7     6    1
   164     7     8    1
   165    23    24    1
   166   133   134    2
   167    24    25    2
   168     9     8    1
   169    19    18    1
   170    19    20    1
   171   122   123    2
   172    20    21    2
