@<TRIPOS>MOLECULE
tmp/1iahB01.pdb
 180 169 0 0 0
SMALL
GASTEIGER

@<TRIPOS>ATOM
      1  N         48.0250   45.9800   53.0370 N.3    69  MET69      -0.1230
      2  CA        49.1440   45.4960   52.2290 C.3    69  MET69       0.1702
      3  C         50.0120   44.3970   52.8510 C.2    69  MET69       0.2593
      4  O         50.0890   44.2600   54.0700 O.2    69  MET69      -0.2718
      5  CB        50.0590   46.6630   51.8600 C.3    69  MET69       0.0401
      6  CG        49.3400   47.9340   51.4570 C.3    69  MET69       0.0596
      7  SD        50.5230   49.2900   51.2190 S.3    69  MET69      -0.1393
      8  CE        50.7940   49.7700   52.9040 C.3    69  MET69       0.0692
      9  N         50.6640   43.6120   51.9930 N.am   70  GLY70      -0.1942
     10  CA        51.5470   42.5540   52.4620 C.3    70  GLY70       0.2014
     11  C         51.0300   41.1290   52.4200 C.2    70  GLY70       0.2639
     12  O         49.8300   40.9050   52.3220 O.2    70  GLY70      -0.2714
     13  N         51.9450   40.1650   52.5050 N.am   71  GLY71      -0.1939
     14  CA        51.5580   38.7630   52.4830 C.3    71  GLY71       0.2014
     15  C         52.2360   37.9380   53.5630 C.2    71  GLY71       0.2639
     16  O         51.8880   36.7750   53.7770 O.2    71  GLY71      -0.2714
     17  N         53.2000   38.5460   54.2490 N.am   72  GLY72      -0.1939
     18  CA        53.9320   37.8650   55.3060 C.3    72  GLY72       0.2014
     19  C         53.1280   37.5980   56.5630 C.2    72  GLY72       0.2639
     20  O         51.9350   37.3070   56.4880 O.2    72  GLY72      -0.2714
     21  N         53.7810   37.7010   57.7200 N.am   73  LEU73      -0.1963
     22  CA        53.1260   37.4520   59.0050 C.3    73  LEU73       0.1728
     23  C         52.3460   38.6700   59.4540 C.2    73  LEU73       0.2616
     24  O         51.5480   38.6080   60.3950 O.2    73  LEU73      -0.2715
     25  CB        54.1630   37.1300   60.0740 C.3    73  LEU73       0.0311
     26  CG        55.4170   36.3970   59.6150 C.3    73  LEU73       0.0022
     27  CD1       56.6130   37.0770   60.2430 C.3    73  LEU73       0.0001
     28  CD2       55.3410   34.9320   60.0000 C.3    73  LEU73       0.0001
     29  N         52.5850   39.7820   58.7740 N.am   74  ARG74      -0.1963
     30  CA        51.9270   41.0260   59.1190 C.3    74  ARG74       0.1729
     31  C         51.2150   41.6480   57.9390 C.2    74  ARG74       0.2616
     32  O         51.3980   41.2360   56.7970 O.2    74  ARG74      -0.2715
     33  CB        52.9490   42.0110   59.6760 C.3    74  ARG74       0.0348
     34  CG        53.5940   41.5310   60.9630 C.3    74  ARG74       0.0492
     35  CD        54.3390   42.6510   61.6430 C.3    74  ARG74       0.2205
     36  NE        55.3960   43.1780   60.7930 N.pl3  74  ARG74      -0.0865
     37  CZ        56.1320   44.2360   61.1100 C.cat  74  ARG74       0.5346
     38  NH1       55.9130   44.8730   62.2620 N.pl3  74  ARG74       0.1354
     39  NH2       57.0820   44.6590   60.2830 N.pl3  74  ARG74       0.1354
     40  N         50.3940   42.6430   58.2410 N.am   75  ARG75      -0.1963
     41  CA        49.6360   43.3600   57.2330 C.3    75  ARG75       0.1729
     42  C         49.8640   44.8400   57.5510 C.2    75  ARG75       0.2616
     43  O         49.9400   45.2270   58.7210 O.2    75  ARG75      -0.2715
     44  CB        48.1520   42.9710   57.3300 C.3    75  ARG75       0.0348
     45  CG        47.3930   42.8660   55.9940 C.3    75  ARG75       0.0492
     46  CD        47.9930   41.8640   54.9820 C.3    75  ARG75       0.2205
     47  NE        48.6320   40.7010   55.6010 N.pl3  75  ARG75      -0.0865
     48  CZ        48.7840   39.5140   55.0120 C.cat  75  ARG75       0.5346
     49  NH1       48.3320   39.3090   53.7830 N.pl3  75  ARG75       0.1354
     50  NH2       49.4180   38.5320   55.6390 N.pl3  75  ARG75       0.1354
     51  N         49.9960   45.6560   56.5070 N.am   76  ALA76      -0.1977
     52  CA        50.2470   47.0840   56.6610 C.3    76  ALA76       0.1597
     53  C         49.1030   47.9370   56.1310 C.2    76  ALA76       0.2287
     54  O         48.6150   47.7240   55.0220 O.2    76  ALA76      -0.2864
     55  CB        51.5460   47.4600   55.9480 C.3    76  ALA76       0.0319
     56  N         47.7550   52.0660   55.7180 N.3    78  LYS78      -0.1245
     57  CA        48.1390   53.4610   55.7690 C.3    78  LYS78       0.1561
     58  C         47.1380   54.2220   56.6160 C.2    78  LYS78       0.2260
     59  O         45.9400   53.9560   56.5620 O.2    78  LYS78      -0.2867
     60  CB        48.1680   54.0700   54.3700 C.3    78  LYS78       0.0271
     61  CG        49.2780   53.5560   53.4880 C.3    78  LYS78       0.0035
     62  CD        49.3190   54.2840   52.1540 C.3    78  LYS78       0.0206
     63  CE        50.3930   53.6900   51.2510 C.3    78  LYS78       0.1093
     64  NZ        50.4840   54.3470   49.9120 N.3    78  LYS78      -0.1314
     65  N         52.3150   54.0310   58.4680 N.3    96  ILE96      -0.1245
     66  CA        51.8950   52.6680   58.2420 C.3    96  ILE96       0.1561
     67  C         51.7610   52.0180   59.5960 C.2    96  ILE96       0.2260
     68  O         52.6360   52.1650   60.4440 O.2    96  ILE96      -0.2867
     69  CB        52.9350   51.8710   57.4420 C.3    96  ILE96       0.0252
     70  CG1       53.0410   52.4260   56.0210 C.3    96  ILE96       0.0019
     71  CG2       52.5490   50.3860   57.4300 C.3    96  ILE96       0.0019
     72  CD1       51.8770   52.0420   55.1330 C.3    96  ILE96       0.0001
     73  N         51.2700   48.3780   61.4750 N.3    98  LYS98      -0.1245
     74  CA        51.3970   46.9570   61.1960 C.3    98  LYS98       0.1561
     75  C         50.9140   46.0740   62.3220 C.2    98  LYS98       0.2260
     76  O         51.1370   46.3620   63.4900 O.2    98  LYS98      -0.2867
     77  CB        52.8480   46.6300   60.8540 C.3    98  LYS98       0.0271
     78  CG        53.3870   47.5020   59.7320 C.3    98  LYS98       0.0035
     79  CD        54.7900   47.1110   59.3100 C.3    98  LYS98       0.0206
     80  CE        55.3300   48.1180   58.3050 C.3    98  LYS98       0.1093
     81  NZ        56.7350   47.8260   57.8770 N.3    98  LYS98      -0.1314
     82  N         63.9000   52.8560   58.8730 N.3   153  LEU153     -0.1245
     83  CA        62.9560   53.8060   59.4450 C.3   153  LEU153      0.1561
     84  C         62.8520   53.6020   60.9480 C.2   153  LEU153      0.2260
     85  O         63.1940   52.5350   61.4520 O.2   153  LEU153     -0.2867
     86  CB        61.5680   53.6160   58.8300 C.3   153  LEU153      0.0270
     87  CG        61.4080   53.8050   57.3180 C.3   153  LEU153      0.0019
     88  CD1       59.9750   53.4160   56.9290 C.3   153  LEU153      0.0001
     89  CD2       61.7260   55.2590   56.9320 C.3   153  LEU153      0.0001
     90  N         55.2460   53.3700   61.6530 N.3   170  GLU170     -0.1231
     91  CA        56.4050   53.9780   61.0120 C.3   170  GLU170      0.1699
     92  C         55.9270   54.8690   59.8670 C.2   170  GLU170      0.2592
     93  O         54.7950   54.7280   59.3970 O.2   170  GLU170     -0.2718
     94  CB        57.3230   52.8800   60.4590 C.3   170  GLU170      0.0402
     95  CG        56.6710   52.0020   59.3850 C.3   170  GLU170      0.1161
     96  CD        57.4320   50.7090   59.1160 C.2   170  GLU170      0.3649
     97  OE1       57.4110   49.8150   59.9880 O.co2 170  GLU170     -0.2457
     98  OE2       58.0440   50.5820   58.0370 O.co2 170  GLU170     -0.2457
     99  N         56.7850   55.7760   59.4080 N.am  171  GLU171     -0.1966
    100  CA        56.4120   56.6580   58.3060 C.3   171  GLU171      0.1733
    101  C         56.0680   55.8230   57.0890 C.2   171  GLU171      0.2616
    102  O         56.5720   54.7160   56.9250 O.2   171  GLU171     -0.2715
    103  CB        57.5620   57.5870   57.9030 C.3   171  GLU171      0.0429
    104  CG        57.9170   58.6860   58.8780 C.3   171  GLU171      0.1163
    105  CD        59.1610   59.4380   58.4410 C.2   171  GLU171      0.3649
    106  OE1       60.0560   58.8030   57.8390 O.co2 171  GLU171     -0.2457
    107  OE2       59.2590   60.6520   58.7030 O.co2 171  GLU171     -0.2457
    108  N         55.2160   56.3640   56.2310 N.am  172  CYS172     -0.1954
    109  CA        54.8440   55.6750   55.0070 C.3   172  CYS172      0.1843
    110  C         55.6890   56.2220   53.8650 C.2   172  CYS172      0.2625
    111  O         55.6090   57.4020   53.5440 O.2   172  CYS172     -0.2714
    112  CB        53.3640   55.8880   54.6870 C.3   172  CYS172      0.0997
    113  SG        52.9300   55.3650   53.0050 S.3   172  CYS172     -0.0797
    114  N         56.5050   55.3620   53.2650 N.am  173  MET173     -0.1977
    115  CA        57.3590   55.7620   52.1570 C.3   173  MET173      0.1605
    116  C         56.5610   55.6640   50.8570 C.2   173  MET173      0.2287
    117  O         55.7950   54.7220   50.6650 O.2   173  MET173     -0.2864
    118  CB        58.5810   54.8350   52.0620 C.3   173  MET173      0.0413
    119  CG        59.4720   54.7760   53.2990 C.3   173  MET173      0.0598
    120  SD        60.8630   53.6060   53.0770 S.3   173  MET173     -0.1393
    121  CE        60.0600   52.0810   53.4670 C.3   173  MET173      0.0692
    122  N         58.3820   50.1030   46.3530 N.3   177  PHE177     -0.1241
    123  CA        58.8520   49.3220   47.4850 C.3   177  PHE177      0.1605
    124  C         59.4090   47.9990   46.9550 C.2   177  PHE177      0.2264
    125  O         58.6570   47.1600   46.4580 O.2   177  PHE177     -0.2867
    126  CB        57.6910   49.0670   48.4530 C.3   177  PHE177      0.0534
    127  CG        58.1150   48.4860   49.7760 C.ar  177  PHE177     -0.0203
    128  CD1       58.4540   47.1400   49.8860 C.ar  177  PHE177     -0.0042
    129  CD2       58.1870   49.2900   50.9120 C.ar  177  PHE177     -0.0042
    130  CE1       58.8570   46.6050   51.1020 C.ar  177  PHE177     -0.0003
    131  CE2       58.5900   48.7590   52.1330 C.ar  177  PHE177     -0.0003
    132  CZ        58.9260   47.4110   52.2260 C.ar  177  PHE177     -0.0000
    133  N         62.6320   44.6130   47.1890 N.3   179  LYS179     -0.1245
    134  CA        63.4590   43.7690   48.0450 C.3   179  LYS179      0.1561
    135  C         64.8190   43.4720   47.3960 C.2   179  LYS179      0.2260
    136  O         64.8800   43.0730   46.2380 O.2   179  LYS179     -0.2867
    137  CB        62.7050   42.4630   48.3410 C.3   179  LYS179      0.0271
    138  CG        63.3410   41.5870   49.4090 C.3   179  LYS179      0.0035
    139  CD        62.4540   40.4030   49.8070 C.3   179  LYS179      0.0206
    140  CE        61.0830   40.8430   50.3100 C.3   179  LYS179      0.1093
    141  NZ        60.3720   39.7450   51.0360 N.3   179  LYS179     -0.1314
    142  N         66.7800   40.2220   54.1720 N.3   217  ASP217     -0.1239
    143  CA        65.4740   40.7960   53.8770 C.3   217  ASP217      0.1674
    144  C         65.5330   42.3210   53.7970 C.2   217  ASP217      0.2266
    145  O         64.6430   43.0280   54.2880 O.2   217  ASP217     -0.2867
    146  CB        64.4600   40.3600   54.9370 C.3   217  ASP217      0.1410
    147  CG        63.1310   39.9710   54.3350 C.2   217  ASP217      0.3668
    148  OD1       63.1260   39.4700   53.1950 O.co2 217  ASP217     -0.2456
    149  OD2       62.0870   40.1560   54.9980 O.co2 217  ASP217     -0.2456
    150  N         64.8600   45.5940   52.3640 N.3   219  GLN219     -0.1245
    151  CA        63.7850   46.0290   51.4880 C.3   219  GLN219      0.1566
    152  C         63.2560   47.4190   51.8440 C.2   219  GLN219      0.2260
    153  O         63.3180   47.8460   52.9920 O.2   219  GLN219     -0.2867
    154  CB        62.6390   45.0480   51.5890 C.3   219  GLN219      0.0367
    155  CG        62.0680   45.0080   52.9820 C.3   219  GLN219      0.0905
    156  CD        61.0330   43.9400   53.1370 C.2   219  GLN219      0.2608
    157  OE1       60.1080   43.8360   52.3380 O.2   219  GLN219     -0.2717
    158  NE2       61.1780   43.1310   54.1670 N.am  219  GLN219     -0.0878
    159  N         62.3700   51.5520   49.9390 N.3   221  VAL221     -0.1245
    160  CA        62.3500   52.4470   48.8010 C.3   221  VAL221      0.1561
    161  C         63.6900   53.1560   48.7840 C.2   221  VAL221      0.2260
    162  O         63.9910   53.9450   49.6650 O.2   221  VAL221     -0.2867
    163  CB        61.2070   53.4720   48.9170 C.3   221  VAL221      0.0252
    164  CG1       61.1940   54.3610   47.7040 C.3   221  VAL221      0.0019
    165  CG2       59.8760   52.7480   49.0520 C.3   221  VAL221      0.0019
    166  N         63.1390   49.0040   55.7040 N.3   226  THR226     -0.1203
    167  CA        62.2720   48.6460   56.8130 C.3   226  THR226      0.1994
    168  C         62.0020   47.1390   56.8380 C.2   226  THR226      0.2617
    169  O         62.1830   46.4390   55.8390 O.2   226  THR226     -0.2717
    170  CB        60.9120   49.3940   56.7430 C.3   226  THR226      0.1784
    171  OG1       60.2420   49.2600   58.0030 O.3   226  THR226     -0.2211
    172  CG2       60.0040   48.8140   55.6290 C.3   226  THR226      0.0376
    173  N         61.5720   46.6520   57.9950 N.am  227  ASP227     -0.1973
    174  CA        61.2510   45.2430   58.2060 C.3   227  ASP227      0.1709
    175  C         62.3670   44.2450   57.8850 C.2   227  ASP227      0.2293
    176  O         62.1510   43.2350   57.2230 O.2   227  ASP227     -0.2864
    177  CB        59.9880   44.8750   57.4230 C.3   227  ASP227      0.1436
    178  CG        59.3800   43.5670   57.9070 C.2   227  ASP227      0.3671
    179  OD1       59.3550   43.3600   59.1390 O.co2 227  ASP227     -0.2456
    180  OD2       58.9440   42.7410   57.0740 O.co2 227  ASP227     -0.2456
@<TRIPOS>BOND
     1   136   135    2
     2   122   123    1
     3   125   124    2
     4   124   123    1
     5   133   134    1
     6   135   134    1
     7   123   126    1
     8   164   163    1
     9   134   137    1
    10   137   138    1
    11   126   127    1
    12   161   160    1
    13   161   162    2
    14   160   163    1
    15   160   159    1
    16   163   165    1
    17   138   139    1
    18   127   128   ar
    19   127   129   ar
    20   139   140    1
    21   128   130   ar
    22    64    63    1
    23   140   141    1
    24   117   116    2
    25   116   115    1
    26   129   131   ar
    27   130   132   ar
    28     7     6    1
    29     7     8    1
    30    63    62    1
    31     6     5    1
    32   151   154    1
    33   151   152    1
    34   151   150    1
    35   154   155    1
    36   152   153    2
    37     5     2    1
    38     9    10    1
    39     9     3   am
    40   118   115    1
    41   118   119    1
    42   131   132   ar
    43    62    61    1
    44   115   114    1
    45     2     3    1
    46     2     1    1
    47    12    11    2
    48   157   156    2
    49    11    10    1
    50    11    13   am
    51    14    13    1
    52    14    15    1
    53     3     4    2
    54   155   156    1
    55   113   112    1
    56   120   119    1
    57   120   121    1
    58   156   158   am
    59   148   147   ar
    60   114   110   am
    61    61    60    1
    62   111   110    2
    63    15    16    2
    64    15    17   am
    65    49    48    1
    66   144   143    1
    67   144   145    2
    68   110   109    1
    69   143   142    1
    70   143   146    1
    71    17    18    1
    72   147   146    1
    73   147   149   ar
    74    60    57    1
    75   112   109    1
    76    46    47    1
    77    46    45    1
    78   109   108    1
    79    48    47    2
    80    48    50    1
    81    54    53    2
    82    72    70    1
    83    18    19    1
    84   172   170    1
    85   166   167    1
    86    56    57    1
    87    57    58    1
    88   169   168    2
    89    55    52    1
    90    45    44    1
    91    70    69    1
    92    53    52    1
    93   108   101   am
    94    20    19    2
    95    51    52    1
    96    51    42   am
    97    59    58    2
    98    19    21   am
    99   170   167    1
   100   170   171    1
   101    32    31    2
   102   167   168    1
   103   168   173   am
   104   102   101    2
   105    88    87    1
   106    89    87    1
   107   180   178   ar
   108   101   100    1
   109   176   175    2
   110    41    44    1
   111    41    42    1
   112    41    40    1
   113    87    86    1
   114   177   178    1
   115   177   174    1
   116    71    69    1
   117    69    66    1
   118    42    43    2
   119    21    22    1
   120   106   105   ar
   121    81    80    1
   122   175   174    1
   123   103   100    1
   124   103   104    1
   125   178   179   ar
   126    31    40   am
   127    31    30    1
   128   173   174    1
   129    98    96   ar
   130    66    65    1
   131    66    67    1
   132    80    79    1
   133   100    99    1
   134   105   107   ar
   135   105   104    1
   136    29    30    1
   137    29    23   am
   138    86    83    1
   139    82    83    1
   140    22    23    1
   141    22    25    1
   142    96    95    1
   143    96    97   ar
   144    30    33    1
   145    79    78    1
   146    95    94    1
   147    93    92    2
   148    99    92   am
   149    83    84    1
   150    23    24    2
   151    67    68    2
   152    26    28    1
   153    26    25    1
   154    26    27    1
   155    33    34    1
   156    78    77    1
   157    92    91    1
   158    39    37    1
   159    94    91    1
   160    36    37    2
   161    36    35    1
   162    77    74    1
   163    84    85    2
   164    34    35    1
   165    91    90    1
   166    37    38    1
   167    74    73    1
   168    74    75    1
   169    75    76    2
