@<TRIPOS>MOLECULE
tmp/1iayA00.pdb
 137 128 0 0 0
SMALL
GASTEIGER

@<TRIPOS>ATOM
      1  N          3.9410   45.1230    4.8030 N.3   107  GLY107     -0.1210
      2  CA         4.3360   45.3790    6.1760 C.3   107  GLY107      0.1956
      3  C          5.0960   44.1500    6.6400 C.2   107  GLY107      0.2612
      4  O          5.3360   43.2490    5.8400 O.2   107  GLY107     -0.2717
      5  N          5.4690   44.0940    7.9150 N.am  108  ALA108     -0.1965
      6  CA         6.2050   42.9420    8.4330 C.3   108  ALA108      0.1728
      7  C          5.3510   41.6780    8.3810 C.2   108  ALA108      0.2616
      8  O          5.8710   40.5720    8.3690 O.2   108  ALA108     -0.2715
      9  CB         6.6690   43.2120    9.8650 C.3   108  ALA108      0.0334
     10  N          4.0330   41.8490    8.3530 N.am  109  THR109     -0.1951
     11  CA         3.1230   40.7120    8.2930 C.3   109  THR109      0.1897
     12  C          3.3320   39.9430    6.9930 C.2   109  THR109      0.2313
     13  O          3.4300   38.7190    6.9990 O.2   109  THR109     -0.2863
     14  CB         1.6480   41.1700    8.3970 C.3   109  THR109      0.1794
     15  OG1        1.3420   41.4880    9.7590 O.3   109  THR109     -0.2208
     16  CG2        0.7130   40.0880    7.9400 C.3   109  THR109      0.0378
     17  N          7.1580   38.4420    6.8810 N.3   112  ASN112     -0.1240
     18  CA         7.3290   37.1680    7.5530 C.3   112  ASN112      0.1653
     19  C          6.6470   36.0200    6.8010 C.2   112  ASN112      0.2266
     20  O          7.2170   34.9270    6.6980 O.2   112  ASN112     -0.2867
     21  CB         6.8120   37.2450    8.9920 C.3   112  ASN112      0.1155
     22  CG         7.7600   38.0130    9.9250 C.2   112  ASN112      0.2627
     23  OD1        8.9800   37.8030    9.9160 O.2   112  ASN112     -0.2716
     24  ND2        7.1940   38.8890   10.7500 N.am  112  ASN112     -0.0877
     25  N          5.7930   36.9850   19.2790 N.3   133  TYR133     -0.1241
     26  CA         4.7280   37.7760   18.6780 C.3   133  TYR133      0.1605
     27  C          3.5930   36.8360   18.2770 C.2   133  TYR133      0.2264
     28  O          3.6950   36.1050   17.2950 O.2   133  TYR133     -0.2867
     29  CB         5.3110   38.5090   17.4710 C.3   133  TYR133      0.0534
     30  CG         4.3220   39.1900   16.5550 C.ar  133  TYR133     -0.0201
     31  CD1        3.5730   40.2830   16.9780 C.ar  133  TYR133     -0.0009
     32  CD2        4.1990   38.7820   15.2280 C.ar  133  TYR133     -0.0009
     33  CE1        2.7350   40.9540   16.1040 C.ar  133  TYR133      0.0417
     34  CE2        3.3670   39.4440   14.3480 C.ar  133  TYR133      0.0417
     35  CZ         2.6370   40.5330   14.7880 C.ar  133  TYR133      0.1957
     36  OH         1.8270   41.1940   13.8810 O.3   133  TYR133     -0.2866
     37  N          2.4310   35.5160   14.8140 N.3   136  PHE136     -0.1241
     38  CA         3.2700   34.5610   14.0960 C.3   136  PHE136      0.1605
     39  C          2.4660   33.3180   13.7500 C.2   136  PHE136      0.2264
     40  O          2.5720   32.8030   12.6360 O.2   136  PHE136     -0.2867
     41  CB         4.4870   34.1520   14.9260 C.3   136  PHE136      0.0534
     42  CG         5.6730   35.0720   14.7810 C.ar  136  PHE136     -0.0203
     43  CD1        5.7320   36.0120   13.7610 C.ar  136  PHE136     -0.0042
     44  CD2        6.7570   34.9610   15.6400 C.ar  136  PHE136     -0.0042
     45  CE1        6.8540   36.8240   13.6020 C.ar  136  PHE136     -0.0003
     46  CE2        7.8820   35.7680   15.4850 C.ar  136  PHE136     -0.0003
     47  CZ         7.9290   36.6980   14.4660 C.ar  136  PHE136     -0.0000
     48  N          0.7020   34.5570   10.6190 N.3   139  ASP139     -0.1239
     49  CA         1.6470   35.0280    9.6320 C.3   139  ASP139      0.1674
     50  C          2.5720   33.9500    9.0850 C.2   139  ASP139      0.2266
     51  O          2.8250   33.9120    7.8840 O.2   139  ASP139     -0.2867
     52  CB         2.4630   36.1870   10.2240 C.3   139  ASP139      0.1410
     53  CG         1.5800   37.3590   10.6560 C.2   139  ASP139      0.3668
     54  OD1        0.3940   37.3600   10.2730 O.co2 139  ASP139     -0.2456
     55  OD2        2.0540   38.2790   11.3640 O.co2 139  ASP139     -0.2456
     56  N         13.4670   37.4050   17.0000 N.3   186  THR186     -0.1218
     57  CA        12.8940   38.7480   17.0130 C.3   186  THR186      0.1862
     58  C         13.8920   39.5150   17.8610 C.2   186  THR186      0.2287
     59  O         14.0520   39.2240   19.0450 O.2   186  THR186     -0.2866
     60  CB        11.5040   38.8020   17.6900 C.3   186  THR186      0.1770
     61  OG1       10.5680   38.0180   16.9440 O.3   186  THR186     -0.2211
     62  CG2       10.9940   40.2170   17.7220 C.3   186  THR186      0.0375
     63  N         10.2110   40.7770   21.2780 N.3   190  ASN190     -0.1240
     64  CA         8.7890   41.0410   21.5320 C.3   190  ASN190      0.1653
     65  C          8.2090   39.7270   22.0850 C.2   190  ASN190      0.2266
     66  O          8.3050   38.6760   21.4410 O.2   190  ASN190     -0.2867
     67  CB         8.0750   41.4360   20.2330 C.3   190  ASN190      0.1155
     68  CG         6.5740   41.6630   20.4280 C.2   190  ASN190      0.2627
     69  OD1        6.1210   41.9760   21.5310 O.2   190  ASN190     -0.2716
     70  ND2        5.8040   41.5250   19.3510 N.am  190  ASN190     -0.0877
     71  N         13.7190   39.1150   12.5260 N.3   218  ASP218     -0.1239
     72  CA        12.7030   40.1540   12.4540 C.3   218  ASP218      0.1674
     73  C         13.1780   41.2720   13.3880 C.2   218  ASP218      0.2266
     74  O         12.8400   41.2870   14.5720 O.2   218  ASP218     -0.2867
     75  CB        11.3780   39.5540   12.9330 C.3   218  ASP218      0.1410
     76  CG        10.2010   40.4880   12.7610 C.2   218  ASP218      0.3668
     77  OD1       10.2670   41.6550   13.2180 O.co2 218  ASP218     -0.2456
     78  OD2        9.1890   40.0370   12.1830 O.co2 218  ASP218     -0.2456
     79  N         12.3600   44.3940   13.5950 N.3   220  ILE220     -0.1231
     80  CA        11.4300   45.4970   13.4390 C.3   220  ILE220      0.1692
     81  C         11.4850   46.5640   14.5240 C.2   220  ILE220      0.2592
     82  O         11.0200   47.6800   14.3130 O.2   220  ILE220     -0.2718
     83  CB         9.9980   44.9660   13.3270 C.3   220  ILE220      0.0266
     84  CG1        9.0430   46.1080   12.9580 C.3   220  ILE220      0.0019
     85  CG2        9.6140   44.2810   14.6210 C.3   220  ILE220      0.0020
     86  CD1        7.5980   45.6820   12.7360 C.3   220  ILE220      0.0001
     87  N         12.0480   46.2420   15.6810 N.am  221  TYR221     -0.1976
     88  CA        12.1530   47.2280   16.7640 C.3   221  TYR221      0.1639
     89  C         13.5580   47.8330   16.8580 C.2   221  TYR221      0.2290
     90  O         13.9080   48.4570   17.8660 O.2   221  TYR221     -0.2864
     91  CB        11.8060   46.5800   18.1050 C.3   221  TYR221      0.0560
     92  CG        10.3450   46.2570   18.2760 C.ar  221  TYR221     -0.0198
     93  CD1        9.4210   47.2510   18.5960 C.ar  221  TYR221     -0.0009
     94  CD2        9.8810   44.9600   18.1020 C.ar  221  TYR221     -0.0009
     95  CE1        8.0710   46.9580   18.7370 C.ar  221  TYR221      0.0417
     96  CE2        8.5350   44.6550   18.2370 C.ar  221  TYR221      0.0417
     97  CZ         7.6350   45.6550   18.5530 C.ar  221  TYR221      0.1957
     98  OH         6.3030   45.3400   18.6730 O.3   221  TYR221     -0.2866
     99  N         10.3700   46.6220    9.0480 N.3   256  SER256     -0.1217
    100  CA         9.1360   47.3770    8.8290 C.3   256  SER256      0.1889
    101  C          9.2520   48.7510    9.4860 C.2   256  SER256      0.2288
    102  O         10.1080   48.9470   10.3500 O.2   256  SER256     -0.2866
    103  CB         7.9570   46.6220    9.4350 C.3   256  SER256      0.2089
    104  OG         6.7670   47.3640    9.2880 O.3   256  SER256     -0.2183
    105  N          6.5250   50.1250   10.8370 N.3   258  SER258     -0.1202
    106  CA         5.3760   50.1810   11.7250 C.3   258  SER258      0.2020
    107  C          5.6420   50.4230   13.2050 C.2   258  SER258      0.2618
    108  O          4.7930   50.9660   13.9010 O.2   258  SER258     -0.2717
    109  CB         4.5330   48.9170   11.5580 C.3   258  SER258      0.2103
    110  OG         3.9240   48.8940   10.2730 O.3   258  SER258     -0.2182
    111  N          6.8110   50.0470   13.6970 N.am  259  LYS259     -0.1979
    112  CA         7.0770   50.2350   15.1130 C.3   259  LYS259      0.1596
    113  C          8.1010   51.3120   15.4540 C.2   259  LYS259      0.2287
    114  O          7.9100   52.0440   16.4190 O.2   259  LYS259     -0.2864
    115  CB         7.4850   48.9040   15.7530 C.3   259  LYS259      0.0298
    116  CG         6.4560   47.7980   15.5860 C.3   259  LYS259      0.0038
    117  CD         5.2540   47.9470   16.5030 C.3   259  LYS259      0.0206
    118  CE         4.2080   46.8660   16.2130 C.3   259  LYS259      0.1093
    119  NZ         4.8380   45.6550   15.6930 N.3   259  LYS259     -0.1314
    120  N          2.4470   52.1170   11.1530 N.3   264  PRO264     -0.2116
    121  CA         1.8760   50.8190   10.7990 C.3   264  PRO264      0.1372
    122  C          0.8460   50.9150    9.6730 C.2   264  PRO264      0.2244
    123  O          0.6670   49.9690    8.9040 O.2   264  PRO264     -0.2868
    124  CB         1.2560   50.3550   12.1140 C.3   264  PRO264      0.0268
    125  CG         0.8620   51.6190   12.7560 C.3   264  PRO264      0.0207
    126  CD         2.0900   52.4630   12.5380 C.3   264  PRO264      0.0892
    127  N          1.8650   50.4420    5.8520 N.3   267  ARG267     -0.1245
    128  CA         2.2110   49.1030    5.3940 C.3   267  ARG267      0.1563
    129  C          3.5810   49.0240    4.7230 C.2   267  ARG267      0.2260
    130  O          3.6960   48.5250    3.6030 O.2   267  ARG267     -0.2867
    131  CB         1.1460   48.6150    4.4130 C.3   267  ARG267      0.0307
    132  CG        -0.2670   48.6340    4.9580 C.3   267  ARG267      0.0489
    133  CD        -0.5550   47.4210    5.8220 C.3   267  ARG267      0.2205
    134  NE         0.0170   47.5430    7.1570 N.pl3 267  ARG267     -0.0865
    135  CZ         0.5890   46.5460    7.8340 C.cat 267  ARG267      0.5346
    136  NH1        0.6810   45.3280    7.3130 N.pl3 267  ARG267      0.1354
    137  NH2        1.0800   46.7780    9.0430 N.pl3 267  ARG267      0.1354
@<TRIPOS>BOND
     1   130   129    2
     2   131   132    1
     3   131   128    1
     4   129   128    1
     5     1     2    1
     6   132   133    1
     7   128   127    1
     8   133   134    1
     9     4     3    2
    10     2     3    1
    11     3     5   am
    12    20    19    2
    13    19    18    1
    14    17    18    1
    15    12    13    2
    16    12    11    1
    17   134   135    2
    18   136   135    1
    19    18    21    1
    20   135   137    1
    21    51    50    2
    22     5     6    1
    23    16    14    1
    24    11    10    1
    25    11    14    1
    26    10     7   am
    27     8     7    2
    28     7     6    1
    29    14    15    1
    30     6     9    1
    31   100    99    1
    32   100   103    1
    33   100   101    1
    34   123   122    2
    35    21    22    1
    36    50    49    1
    37   104   103    1
    38   101   102    2
    39    49    52    1
    40    49    48    1
    41   122   121    1
    42    23    22    2
    43    22    24   am
    44    52    53    1
    45   110   109    1
    46    54    53   ar
    47    53    55   ar
    48   121   120    1
    49   121   124    1
    50   105   106    1
    51   120   126    1
    52   109   106    1
    53   106   107    1
    54   124   125    1
    55    78    76   ar
    56    72    71    1
    57    72    75    1
    58    72    73    1
    59   126   125    1
    60    40    39    2
    61    86    84    1
    62    76    75    1
    63    76    77   ar
    64    84    83    1
    65   107   111   am
    66   107   108    2
    67    83    80    1
    68    83    85    1
    69    73    74    2
    70    80    79    1
    71    80    81    1
    72    45    43   ar
    73    45    47   ar
    74   111   112    1
    75    39    38    1
    76    43    42   ar
    77    36    35    1
    78    38    37    1
    79    38    41    1
    80    82    81    2
    81    34    35   ar
    82    34    32   ar
    83    47    46   ar
    84    81    87   am
    85    42    41    1
    86    42    44   ar
    87    35    33   ar
    88   112   113    1
    89   112   115    1
    90    32    30   ar
    91   113   114    2
    92    46    44   ar
    93   116   115    1
    94   116   117    1
    95    87    88    1
    96   119   118    1
    97    33    31   ar
    98   118   117    1
    99    30    31   ar
   100    30    29    1
   101    88    89    1
   102    88    91    1
   103    89    90    2
   104    61    60    1
   105    56    57    1
   106    57    60    1
   107    57    58    1
   108    28    27    2
   109    29    26    1
   110    60    62    1
   111    58    59    2
   112    94    96   ar
   113    94    92   ar
   114    91    92    1
   115    96    97   ar
   116    92    93   ar
   117    27    26    1
   118    97    98    1
   119    97    95   ar
   120    93    95   ar
   121    26    25    1
   122    70    68   am
   123    67    68    1
   124    67    64    1
   125    68    69    2
   126    63    64    1
   127    66    65    2
   128    64    65    1
