@<TRIPOS>MOLECULE
tmp/1iayA01.pdb
 107 103 0 0 0
SMALL
GASTEIGER

@<TRIPOS>ATOM
      1  N         -2.3980   47.5870   25.5280 N.3    37  GLY37      -0.1210
      2  CA        -2.1850   46.2980   24.9010 C.3    37  GLY37       0.1956
      3  C         -1.6080   46.3970   23.5000 C.2    37  GLY37       0.2612
      4  O         -0.9820   45.4470   23.0230 O.2    37  GLY37      -0.2717
      5  N         -1.8140   47.5390   22.8400 N.am   38  LEU38      -0.1965
      6  CA        -1.3140   47.7530   21.4850 C.3    38  LEU38       0.1728
      7  C          0.0520   48.4190   21.4620 C.2    38  LEU38       0.2616
      8  O          0.2750   49.4330   22.1140 O.2    38  LEU38      -0.2715
      9  CB        -2.3050   48.5900   20.6750 C.3    38  LEU38       0.0311
     10  CG        -3.6150   47.8850   20.2970 C.3    38  LEU38       0.0022
     11  CD1       -4.5990   48.9000   19.7410 C.3    38  LEU38       0.0001
     12  CD2       -3.3410   46.7870   19.2710 C.3    38  LEU38       0.0001
     13  N          0.9580   47.8380   20.6840 N.am   39  ALA39      -0.1963
     14  CA         2.3160   48.3430   20.5620 C.3    39  ALA39       0.1728
     15  C          2.4700   49.4150   19.4860 C.2    39  ALA39       0.2616
     16  O          3.0660   49.1590   18.4370 O.2    39  ALA39      -0.2715
     17  CB         3.2570   47.1930   20.2800 C.3    39  ALA39       0.0334
     18  N          1.9450   50.6100   19.7550 N.am   40  GLU40      -0.1977
     19  CA         2.0360   51.7250   18.8140 C.3    40  GLU40       0.1602
     20  C          3.0960   52.7300   19.2690 C.2    40  GLU40       0.2287
     21  O          3.3750   52.8470   20.4630 O.2    40  GLU40      -0.2864
     22  CB         0.6950   52.4380   18.7070 C.3    40  GLU40       0.0415
     23  CG        -0.4970   51.5570   18.9960 C.3    40  GLU40       0.1163
     24  CD        -1.8140   52.2310   18.6410 C.2    40  GLU40       0.3649
     25  OE1       -2.2120   52.1650   17.4540 O.co2  40  GLU40      -0.2457
     26  OE2       -2.4420   52.8360   19.5450 O.co2  40  GLU40      -0.2457
     27  N          4.0330   41.8490    8.3530 N.3   109  THR109     -0.1218
     28  CA         3.1230   40.7120    8.2930 C.3   109  THR109      0.1862
     29  C          3.3320   39.9430    6.9930 C.2   109  THR109      0.2287
     30  O          3.4300   38.7190    6.9990 O.2   109  THR109     -0.2866
     31  CB         1.6480   41.1700    8.3970 C.3   109  THR109      0.1770
     32  OG1        1.3420   41.4880    9.7590 O.3   109  THR109     -0.2211
     33  CG2        0.7130   40.0880    7.9400 C.3   109  THR109      0.0375
     34  N          5.7930   36.9850   19.2790 N.3   133  TYR133     -0.1228
     35  CA         4.7280   37.7760   18.6780 C.3   133  TYR133      0.1721
     36  C          3.5930   36.8360   18.2770 C.2   133  TYR133      0.2437
     37  O          3.6950   36.1050   17.2950 O.2   133  TYR133     -0.2733
     38  CB         5.3110   38.5090   17.4710 C.3   133  TYR133      0.0547
     39  CG         4.3220   39.1900   16.5550 C.ar  133  TYR133     -0.0200
     40  CD1        3.5730   40.2830   16.9780 C.ar  133  TYR133     -0.0009
     41  CD2        4.1990   38.7820   15.2280 C.ar  133  TYR133     -0.0009
     42  CE1        2.7350   40.9540   16.1040 C.ar  133  TYR133      0.0417
     43  CE2        3.3670   39.4440   14.3480 C.ar  133  TYR133      0.0417
     44  CZ         2.6370   40.5330   14.7880 C.ar  133  TYR133      0.1957
     45  OH         1.8270   41.1940   13.8810 O.3   133  TYR133     -0.2866
     46  N          2.4830   36.8500   19.0350 N.am  134  PRO134     -0.2718
     47  CA         1.3530   35.9700   18.7270 C.3   134  PRO134      0.1535
     48  C          0.8750   35.8630   17.2770 C.2   134  PRO134      0.2598
     49  O          0.5020   34.7810   16.8380 O.2   134  PRO134     -0.2715
     50  CB         0.2670   36.4440   19.7070 C.3   134  PRO134      0.0310
     51  CG         0.6870   37.8220   20.0740 C.3   134  PRO134      0.0237
     52  CD         2.1650   37.7110   20.1840 C.3   134  PRO134      0.0939
     53  N          0.8950   36.9520   16.5220 N.am  135  ALA135     -0.1978
     54  CA         0.4420   36.8790   15.1330 C.3   135  ALA135      0.1597
     55  C          1.2650   35.9080   14.3040 C.2   135  ALA135      0.2287
     56  O          0.8520   35.5250   13.2090 O.2   135  ALA135     -0.2864
     57  CB         0.4650   38.2490   14.4820 C.3   135  ALA135      0.0319
     58  N         -0.2520   32.9710   12.7530 N.3   138  ARG138     -0.1245
     59  CA        -1.0390   33.1860   11.5480 C.3   138  ARG138      0.1563
     60  C         -0.0880   33.5170   10.4010 C.2   138  ARG138      0.2260
     61  O         -0.0610   32.8510    9.3610 O.2   138  ARG138     -0.2867
     62  CB        -2.0050   34.3520   11.7560 C.3   138  ARG138      0.0307
     63  CG        -2.8280   34.7050   10.5350 C.3   138  ARG138      0.0489
     64  CD        -3.4750   36.0660   10.6970 C.3   138  ARG138      0.2205
     65  NE        -2.5030   37.0850   11.1080 N.pl3 138  ARG138     -0.0865
     66  CZ        -2.7210   38.3990   11.0750 C.cat 138  ARG138      0.5346
     67  NH1       -3.8830   38.8690   10.6420 N.pl3 138  ARG138      0.1354
     68  NH2       -1.7790   39.2440   11.4790 N.pl3 138  ARG138      0.1354
     69  N         12.0480   46.2420   15.6810 N.3   221  TYR221     -0.1241
     70  CA        12.1530   47.2280   16.7640 C.3   221  TYR221      0.1605
     71  C         13.5580   47.8330   16.8580 C.2   221  TYR221      0.2264
     72  O         13.9080   48.4570   17.8660 O.2   221  TYR221     -0.2867
     73  CB        11.8060   46.5800   18.1050 C.3   221  TYR221      0.0534
     74  CG        10.3450   46.2570   18.2760 C.ar  221  TYR221     -0.0201
     75  CD1        9.4210   47.2510   18.5960 C.ar  221  TYR221     -0.0009
     76  CD2        9.8810   44.9600   18.1020 C.ar  221  TYR221     -0.0009
     77  CE1        8.0710   46.9580   18.7370 C.ar  221  TYR221      0.0417
     78  CE2        8.5350   44.6550   18.2370 C.ar  221  TYR221      0.0417
     79  CZ         7.6350   45.6550   18.5530 C.ar  221  TYR221      0.1957
     80  OH         6.3030   45.3400   18.6730 O.3   221  TYR221     -0.2866
     81  N          6.8110   50.0470   13.6970 N.3   259  LYS259     -0.1245
     82  CA         7.0770   50.2350   15.1130 C.3   259  LYS259      0.1561
     83  C          8.1010   51.3120   15.4540 C.2   259  LYS259      0.2260
     84  O          7.9100   52.0440   16.4190 O.2   259  LYS259     -0.2867
     85  CB         7.4850   48.9040   15.7530 C.3   259  LYS259      0.0271
     86  CG         6.4560   47.7980   15.5860 C.3   259  LYS259      0.0035
     87  CD         5.2540   47.9470   16.5030 C.3   259  LYS259      0.0206
     88  CE         4.2080   46.8660   16.2130 C.3   259  LYS259      0.1093
     89  NZ         4.8380   45.6550   15.6930 N.3   259  LYS259     -0.1314
     90  N          2.4470   52.1170   11.1530 N.3   264  PRO264     -0.2116
     91  CA         1.8760   50.8190   10.7990 C.3   264  PRO264      0.1372
     92  C          0.8460   50.9150    9.6730 C.2   264  PRO264      0.2244
     93  O          0.6670   49.9690    8.9040 O.2   264  PRO264     -0.2868
     94  CB         1.2560   50.3550   12.1140 C.3   264  PRO264      0.0268
     95  CG         0.8620   51.6190   12.7560 C.3   264  PRO264      0.0207
     96  CD         2.0900   52.4630   12.5380 C.3   264  PRO264      0.0892
     97  N          2.5150   41.8300   29.3660 N.3   393  ARG393     -0.1245
     98  CA         3.1900   42.8380   28.5660 C.3   393  ARG393      0.1563
     99  C          2.3390   44.0890   28.7290 C.2   393  ARG393      0.2260
    100  O          1.1210   44.0100   28.6070 O.2   393  ARG393     -0.2867
    101  CB         3.2480   42.4410   27.0810 C.3   393  ARG393      0.0307
    102  CG         4.0240   43.4570   26.2380 C.3   393  ARG393      0.0489
    103  CD         4.0480   43.1430   24.7580 C.3   393  ARG393      0.2205
    104  NE         2.8730   43.6350   24.0410 N.pl3 393  ARG393     -0.0865
    105  CZ         2.8030   43.7470   22.7160 C.cat 393  ARG393      0.5346
    106  NH1        3.8360   43.4020   21.9570 N.pl3 393  ARG393      0.1354
    107  NH2        1.7100   44.2270   22.1430 N.pl3 393  ARG393      0.1354
@<TRIPOS>BOND
     1    29    30    2
     2    29    28    1
     3    33    31    1
     4    28    27    1
     5    28    31    1
     6    31    32    1
     7    93    92    2
     8    61    60    2
     9    92    91    1
    10    60    59    1
    11    63    64    1
    12    63    62    1
    13    67    66    1
    14    64    65    1
    15    91    90    1
    16    91    94    1
    17    66    65    2
    18    66    68    1
    19    90    96    1
    20    59    62    1
    21    59    58    1
    22    94    95    1
    23    96    95    1
    24    56    55    2
    25    81    82    1
    26    45    44    1
    27    55    54    1
    28    43    44   ar
    29    43    41   ar
    30    57    54    1
    31    44    42   ar
    32    82    83    1
    33    82    85    1
    34    54    53    1
    35    41    39   ar
    36    83    84    2
    37    86    85    1
    38    86    87    1
    39    69    70    1
    40    89    88    1
    41    42    40   ar
    42    88    87    1
    43    53    48   am
    44    39    40   ar
    45    39    38    1
    46    70    71    1
    47    70    73    1
    48    49    48    2
    49    71    72    2
    50    48    47    1
    51    37    36    2
    52    25    24   ar
    53    38    35    1
    54    76    78   ar
    55    76    74   ar
    56    73    74    1
    57    78    79   ar
    58    74    75   ar
    59    36    35    1
    60    36    46   am
    61    16    15    2
    62    79    80    1
    63    79    77   ar
    64    75    77   ar
    65    24    23    1
    66    24    26   ar
    67    35    34    1
    68    22    19    1
    69    22    23    1
    70    47    46    1
    71    47    50    1
    72    19    20    1
    73    19    18    1
    74    46    52    1
    75    20    21    2
    76    12    10    1
    77    15    18   am
    78    15    14    1
    79    50    51    1
    80    11    10    1
    81    51    52    1
    82    17    14    1
    83    10     9    1
    84    14    13    1
    85     9     6    1
    86    13     7   am
    87     7     6    1
    88     7     8    2
    89     6     5    1
    90   106   105    1
    91   107   105    1
    92   105   104    2
    93     5     3   am
    94     4     3    2
    95     3     2    1
    96   104   103    1
    97   103   102    1
    98     2     1    1
    99   102   101    1
   100   101    98    1
   101    98    99    1
   102    98    97    1
   103   100    99    2
