@<TRIPOS>MOLECULE
tmp/1ib0A01.pdb
 188 184 0 0 0
SMALL
GASTEIGER

@<TRIPOS>ATOM
      1  N         21.6890    5.4160   37.8320 N.3    82  LYS82      -0.1245
      2  CA        23.0040    4.8020   37.9730 C.3    82  LYS82       0.1561
      3  C         23.8240    5.3400   36.8110 C.2    82  LYS82       0.2260
      4  O         23.3970    5.2690   35.6740 O.2    82  LYS82      -0.2867
      5  CB        22.9240    3.2730   37.8800 C.3    82  LYS82       0.0271
      6  CG        24.2680    2.5800   38.1170 C.3    82  LYS82       0.0035
      7  CD        24.1220    1.0600   38.0390 C.3    82  LYS82       0.0206
      8  CE        25.2130    0.3330   38.8060 C.3    82  LYS82       0.1093
      9  NZ        24.9000   -1.1660   38.9330 N.3    82  LYS82      -0.1314
     10  N         26.8860    5.1050   34.3160 N.3    84  TYR84      -0.1241
     11  CA        27.8260    4.1440   33.7430 C.3    84  TYR84       0.1605
     12  C         28.9890    4.9310   33.1610 C.2    84  TYR84       0.2264
     13  O         28.9350    5.3770   32.0200 O.2    84  TYR84      -0.2867
     14  CB        27.1390    3.3170   32.6570 C.3    84  TYR84       0.0534
     15  CG        26.0930    2.3780   33.2100 C.ar   84  TYR84      -0.0201
     16  CD1       26.4650    1.2340   33.9200 C.ar   84  TYR84      -0.0009
     17  CD2       24.7300    2.6300   33.0280 C.ar   84  TYR84      -0.0009
     18  CE1       25.5100    0.3580   34.4280 C.ar   84  TYR84       0.0417
     19  CE2       23.7630    1.7570   33.5370 C.ar   84  TYR84       0.0417
     20  CZ        24.1620    0.6250   34.2300 C.ar   84  TYR84       0.1957
     21  OH        23.2150   -0.2500   34.7000 O.3    84  TYR84      -0.2866
     22  N         16.5980   -6.5780   39.0570 N.3   151  GLY151     -0.1210
     23  CA        18.0450   -6.6390   38.9690 C.3   151  GLY151      0.1956
     24  C         18.5240   -5.2310   38.6460 C.2   151  GLY151      0.2612
     25  O         17.9760   -4.5810   37.7630 O.2   151  GLY151     -0.2717
     26  N         19.5270   -4.7410   39.3630 N.am  152  GLY152     -0.1942
     27  CA        20.0540   -3.4170   39.0570 C.3   152  GLY152      0.2014
     28  C         18.9980   -2.3200   39.0650 C.2   152  GLY152      0.2640
     29  O         18.1690   -2.2800   39.9640 O.2   152  GLY152     -0.2714
     30  N         19.0000   -1.4390   38.0710 N.am  153  THR153     -0.1936
     31  CA        18.0170   -0.3450   38.0670 C.3   153  THR153      0.2028
     32  C         16.5680   -0.7920   37.8100 C.2   153  THR153      0.2642
     33  O         15.6460    0.0280   37.8720 O.2   153  THR153     -0.2714
     34  CB        18.3820    0.7630   37.0280 C.3   153  THR153      0.1808
     35  OG1       18.5510    0.1640   35.7470 O.3   153  THR153     -0.2208
     36  CG2       19.6680    1.4950   37.4110 C.3   153  THR153      0.0379
     37  N         16.3650   -2.0780   37.5340 N.am  154  GLY154     -0.1954
     38  CA        15.0130   -2.5610   37.3150 C.3   154  GLY154      0.1869
     39  C         14.1490   -2.3750   38.5610 C.2   154  GLY154      0.2309
     40  O         12.9390   -2.6110   38.5420 O.2   154  GLY154     -0.2863
     41  N         18.0430   -8.3240   43.0460 N.3   180  ALA180     -0.1231
     42  CA        19.3760   -8.8690   42.7040 C.3   180  ALA180      0.1694
     43  C         20.3950   -7.8650   42.1880 C.2   180  ALA180      0.2592
     44  O         20.0990   -7.0750   41.2860 O.2   180  ALA180     -0.2718
     45  CB        19.2210   -9.9860   41.6770 C.3   180  ALA180      0.0304
     46  N         21.6110   -7.9400   42.7240 N.am  181  ASN181     -0.1960
     47  CA        22.6760   -7.0290   42.3210 C.3   181  ASN181      0.1819
     48  C         24.0800   -7.6400   42.2980 C.2   181  ASN181      0.2621
     49  O         24.3240   -8.7300   42.8450 O.2   181  ASN181     -0.2715
     50  CB        22.6450   -5.7860   43.2150 C.3   181  ASN181      0.1195
     51  CG        21.3910   -4.9560   42.9940 C.2   181  ASN181      0.2630
     52  OD1       21.2870   -4.2450   41.9930 O.2   181  ASN181     -0.2716
     53  ND2       20.4160   -5.0750   43.9040 N.am  181  ASN181     -0.0877
     54  N         25.0030   -6.9330   41.6500 N.am  182  GLN182     -0.1977
     55  CA        26.3670   -7.4120   41.5360 C.3   182  GLN182      0.1601
     56  C         27.0440   -7.5440   42.8740 C.2   182  GLN182      0.2287
     57  O         27.6680   -8.5570   43.1450 O.2   182  GLN182     -0.2864
     58  CB        27.1800   -6.4960   40.6220 C.3   182  GLN182      0.0394
     59  CG        26.8360   -6.6780   39.1530 C.3   182  GLN182      0.0908
     60  CD        27.7110   -5.8420   38.2320 C.2   182  GLN182      0.2608
     61  OE1       28.9350   -5.9680   38.2480 O.2   182  GLN182     -0.2717
     62  NE2       27.0850   -4.9820   37.4240 N.am  182  GLN182     -0.0878
     63  N         26.1080   -2.0190   45.2610 N.3   186  ASP186     -0.1239
     64  CA        25.2290   -1.8090   44.1230 C.3   186  ASP186      0.1674
     65  C         23.7300   -1.9600   44.4290 C.2   186  ASP186      0.2266
     66  O         22.9000   -1.8790   43.5200 O.2   186  ASP186     -0.2867
     67  CB        25.6420   -2.7690   42.9990 C.3   186  ASP186      0.1410
     68  CG        27.0460   -2.4790   42.4710 C.2   186  ASP186      0.3668
     69  OD1       27.7290   -3.4210   41.9960 O.co2 186  ASP186     -0.2456
     70  OD2       27.4600   -1.2930   42.5230 O.co2 186  ASP186     -0.2456
     71  N         19.7750  -10.7690   46.7950 N.3   209  THR209     -0.1218
     72  CA        20.7920  -11.7140   46.3770 C.3   209  THR209      0.1862
     73  C         21.8470  -10.8770   45.6580 C.2   209  THR209      0.2287
     74  O         21.5130   -9.9170   44.9520 O.2   209  THR209     -0.2866
     75  CB        20.2950  -12.8810   45.4780 C.3   209  THR209      0.1770
     76  OG1       21.3920  -13.7990   45.3110 O.3   209  THR209     -0.2211
     77  CG2       19.8340  -12.4080   44.1090 C.3   209  THR209      0.0375
     78  N         25.8580  -11.0640   43.5310 N.3   211  ASP211     -0.1239
     79  CA        26.8200  -11.9290   42.8570 C.3   211  ASP211      0.1674
     80  C         28.0240  -12.1950   43.7710 C.2   211  ASP211      0.2266
     81  O         28.3830  -13.3460   44.0190 O.2   211  ASP211     -0.2867
     82  CB        27.2590  -11.3050   41.5250 C.3   211  ASP211      0.1410
     83  CG        26.0830  -11.0930   40.5700 C.2   211  ASP211      0.3668
     84  OD1       25.2510  -12.0160   40.4500 O.co2 211  ASP211     -0.2456
     85  OD2       25.9840  -10.0110   39.9430 O.co2 211  ASP211     -0.2456
     86  N         24.3080  -15.2630   44.3640 N.3   222  GLY222     -0.1210
     87  CA        24.0990  -15.8700   43.0620 C.3   222  GLY222      0.1956
     88  C         22.9310  -15.3310   42.2770 C.2   222  GLY222      0.2612
     89  O         22.1080  -14.5870   42.8080 O.2   222  GLY222     -0.2717
     90  N         22.8650  -15.6960   40.9980 N.am  223  PHE223     -0.1962
     91  CA        21.7740  -15.2760   40.1380 C.3   223  PHE223      0.1771
     92  C         20.4690  -15.8390   40.7100 C.2   223  PHE223      0.2619
     93  O         20.4690  -16.8280   41.4580 O.2   223  PHE223     -0.2715
     94  CB        21.9260  -15.8350   38.7130 C.3   223  PHE223      0.0574
     95  CG        23.1580  -15.3520   37.9640 C.ar  223  PHE223     -0.0200
     96  CD1       23.6470  -14.0640   38.1350 C.ar  223  PHE223     -0.0042
     97  CD2       23.7630  -16.1720   37.0150 C.ar  223  PHE223     -0.0042
     98  CE1       24.7240  -13.5940   37.3600 C.ar  223  PHE223     -0.0003
     99  CE2       24.8310  -15.7210   36.2400 C.ar  223  PHE223     -0.0003
    100  CZ        25.3150  -14.4320   36.4060 C.ar  223  PHE223     -0.0000
    101  N         19.3610  -15.1940   40.3610 N.am  224  VAL224     -0.1977
    102  CA        18.0440  -15.6470   40.7880 C.3   224  VAL224      0.1596
    103  C         17.9030  -17.1160   40.3410 C.2   224  VAL224      0.2287
    104  O         18.3110  -17.4630   39.2290 O.2   224  VAL224     -0.2864
    105  CB        16.9520  -14.8030   40.1010 C.3   224  VAL224      0.0276
    106  CG1       15.5810  -15.4140   40.3590 C.3   224  VAL224      0.0022
    107  CG2       17.0400  -13.3380   40.5910 C.3   224  VAL224      0.0022
    108  N         11.8700   -6.8200   35.9910 N.3   245  CYS245     -0.1221
    109  CA        12.5780   -5.7350   35.3340 C.3   245  CYS245      0.1808
    110  C         14.0450   -5.8440   35.6710 C.2   245  CYS245      0.2602
    111  O         14.4300   -5.7550   36.8380 O.2   245  CYS245     -0.2717
    112  CB        12.0520   -4.3660   35.7530 C.3   245  CYS245      0.0970
    113  SG        12.7930   -3.0330   34.7490 S.3   245  CYS245     -0.0800
    114  N         14.8620   -6.0420   34.6420 N.am  246  GLY246     -0.1943
    115  CA        16.2920   -6.1900   34.8400 C.3   246  GLY246      0.1998
    116  C         16.9900   -6.4800   33.5250 C.2   246  GLY246      0.2481
    117  O         16.3440   -6.4550   32.4770 O.2   246  GLY246     -0.2729
    118  N         18.3070   -6.7440   33.5340 N.am  247  PRO247     -0.2715
    119  CA        19.0420   -7.0310   32.2950 C.3   247  PRO247      0.1521
    120  C         18.4640   -8.2360   31.5540 C.2   247  PRO247      0.2440
    121  O         18.0790   -9.2330   32.1840 O.2   247  PRO247     -0.2731
    122  CB        20.4640   -7.2650   32.7790 C.3   247  PRO247      0.0310
    123  CG        20.2550   -7.8320   34.1470 C.3   247  PRO247      0.0237
    124  CD        19.1550   -6.9730   34.7130 C.3   247  PRO247      0.0939
    125  N         18.3740   -8.1400   30.2060 N.am  248  PRO248     -0.2717
    126  CA        17.8470   -9.1820   29.3160 C.3   248  PRO248      0.1521
    127  C         18.3100  -10.5830   29.6680 C.2   248  PRO248      0.2440
    128  O         17.5020  -11.5110   29.7220 O.2   248  PRO248     -0.2731
    129  CB        18.3260   -8.7370   27.9390 C.3   248  PRO248      0.0310
    130  CG        18.1870   -7.2630   28.0310 C.3   248  PRO248      0.0237
    131  CD        18.7850   -6.9580   29.4200 C.3   248  PRO248      0.0939
    132  N         19.6190  -10.7580   29.9070 N.am  249  PRO249     -0.2716
    133  CA        20.1540  -12.0770   30.2620 C.3   249  PRO249      0.1536
    134  C         19.5460  -12.6000   31.5790 C.2   249  PRO249      0.2598
    135  O         19.4470  -13.8230   31.7880 O.2   249  PRO249     -0.2715
    136  CB        21.6550  -11.8180   30.3970 C.3   249  PRO249      0.0310
    137  CG        21.8920  -10.6420   29.4670 C.3   249  PRO249      0.0237
    138  CD        20.7010   -9.7670   29.7570 C.3   249  PRO249      0.0939
    139  N         19.1490  -11.6880   32.4720 N.am  250  MET250     -0.1964
    140  CA        18.5450  -12.0790   33.7570 C.3   250  MET250      0.1736
    141  C         17.1250  -12.6080   33.5510 C.2   250  MET250      0.2616
    142  O         16.7460  -13.6590   34.0950 O.2   250  MET250     -0.2715
    143  CB        18.4920  -10.8900   34.7390 C.3   250  MET250      0.0427
    144  CG        17.7990  -11.2100   36.0820 C.3   250  MET250      0.0599
    145  SD        17.6500   -9.7970   37.2560 S.3   250  MET250     -0.1393
    146  CE        16.3020   -8.9180   36.5250 C.3   250  MET250      0.0692
    147  N         16.3410  -11.8790   32.7600 N.am  251  ILE251     -0.1977
    148  CA        14.9600  -12.2810   32.4900 C.3   251  ILE251      0.1596
    149  C         14.8980  -13.5600   31.6460 C.2   251  ILE251      0.2287
    150  O         14.1040  -14.4570   31.9140 O.2   251  ILE251     -0.2864
    151  CB        14.1800  -11.1910   31.7050 C.3   251  ILE251      0.0276
    152  CG1       14.3260   -9.8260   32.3910 C.3   251  ILE251      0.0022
    153  CG2       12.7180  -11.5900   31.5830 C.3   251  ILE251      0.0022
    154  CD1       13.7950   -9.7930   33.8150 C.3   251  ILE251      0.0001
    155  N         17.3780  -16.0200   31.0090 N.3   253  PHE253     -0.1227
    156  CA        17.9950  -17.2340   31.5370 C.3   253  PHE253      0.1736
    157  C         17.7730  -17.5780   33.0090 C.2   253  PHE253      0.2595
    158  O         17.6990  -18.7610   33.3540 O.2   253  PHE253     -0.2718
    159  CB        19.5020  -17.1960   31.2780 C.3   253  PHE253      0.0547
    160  CG        19.8630  -16.9690   29.8360 C.ar  253  PHE253     -0.0202
    161  CD1       19.6240  -17.9540   28.8830 C.ar  253  PHE253     -0.0042
    162  CD2       20.4290  -15.7570   29.4290 C.ar  253  PHE253     -0.0042
    163  CE1       19.9390  -17.7410   27.5410 C.ar  253  PHE253     -0.0003
    164  CE2       20.7510  -15.5260   28.0860 C.ar  253  PHE253     -0.0003
    165  CZ        20.5050  -16.5230   27.1400 C.ar  253  PHE253     -0.0000
    166  N         17.6690  -16.5710   33.8770 N.am  254  ALA254     -0.1980
    167  CA        17.5020  -16.8230   35.3100 C.3   254  ALA254      0.1597
    168  C         16.0710  -16.7590   35.8400 C.2   254  ALA254      0.2287
    169  O         15.7450  -17.4090   36.8420 O.2   254  ALA254     -0.2864
    170  CB        18.3710  -15.8660   36.1010 C.3   254  ALA254      0.0319
    171  N          6.8850   -8.3680   32.0700 N.3   271  THR271     -0.1203
    172  CA         8.2340   -7.8290   32.1040 C.3   271  THR271      0.1994
    173  C          8.2230   -6.3670   31.7220 C.2   271  THR271      0.2617
    174  O          7.8690   -6.0440   30.5960 O.2   271  THR271     -0.2717
    175  CB         9.1310   -8.5730   31.1290 C.3   271  THR271      0.1784
    176  OG1        9.3030   -9.9260   31.5710 O.3   271  THR271     -0.2211
    177  CG2       10.4730   -7.8930   31.0400 C.3   271  THR271      0.0376
    178  N          8.6110   -5.4870   32.6490 N.am  272  PHE272     -0.1975
    179  CA         8.6430   -4.0450   32.3800 C.3   272  PHE272      0.1639
    180  C          9.6340   -3.7070   31.2620 C.2   272  PHE272      0.2290
    181  O          9.4850   -2.6620   30.6150 O.2   272  PHE272     -0.2864
    182  CB         9.0180   -3.2450   33.6460 C.3   272  PHE272      0.0560
    183  CG         7.8960   -3.1210   34.6600 C.ar  272  PHE272     -0.0200
    184  CD1        6.8250   -2.2430   34.4370 C.ar  272  PHE272     -0.0042
    185  CD2        7.9280   -3.8530   35.8470 C.ar  272  PHE272     -0.0042
    186  CE1        5.8100   -2.0950   35.3850 C.ar  272  PHE272     -0.0003
    187  CE2        6.9080   -3.7040   36.8110 C.ar  272  PHE272     -0.0003
    188  CZ         5.8550   -2.8280   36.5800 C.ar  272  PHE272     -0.0000
@<TRIPOS>BOND
     1   165   163   ar
     2   165   164   ar
     3   163   161   ar
     4   129   130    1
     5   129   126    1
     6   130   131    1
     7   164   162   ar
     8   161   160   ar
     9   126   127    1
    10   126   125    1
    11   131   125    1
    12   162   160   ar
    13   137   138    1
    14   137   136    1
    15   127   128    2
    16   127   132   am
    17   138   132    1
    18   160   159    1
    19   132   133    1
    20   125   120   am
    21   133   136    1
    22   133   134    1
    23   174   173    2
    24   181   180    2
    25   155   156    1
    26   177   175    1
    27   175   176    1
    28   175   172    1
    29   180   179    1
    30   159   156    1
    31   156   157    1
    32   120   121    2
    33   120   119    1
    34   134   135    2
    35   134   139   am
    36   153   151    1
    37   149   150    2
    38   149   148    1
    39   151   152    1
    40   151   148    1
    41   173   172    1
    42   173   178   am
    43    13    12    2
    44   171   172    1
    45   119   122    1
    46   119   118    1
    47   179   178    1
    48   179   182    1
    49   152   154    1
    50   139   140    1
    51   117   116    2
    52   148   147    1
    53    14    15    1
    54    14    11    1
    55   147   141   am
    56   122   123    1
    57   157   158    2
    58   157   166   am
    59    17    15   ar
    60    17    19   ar
    61    12    11    1
    62    15    16   ar
    63   116   118   am
    64   116   115    1
    65   118   124    1
    66    19    20   ar
    67   141   140    1
    68   141   142    2
    69   182   183    1
    70    11    10    1
    71   140   143    1
    72   166   167    1
    73    16    18   ar
    74   123   124    1
    75    20    18   ar
    76    20    21    1
    77   184   183   ar
    78   184   186   ar
    79   114   115    1
    80   114   110   am
    81   183   185   ar
    82   143   144    1
    83   113   112    1
    84   167   168    1
    85   167   170    1
    86   109   110    1
    87   109   112    1
    88   109   108    1
    89   186   188   ar
    90   110   111    2
    91     4     3    2
    92    35    34    1
    93   168   169    2
    94   185   187   ar
    95   144   145    1
    96    99   100   ar
    97    99    97   ar
    98   100    98   ar
    99   146   145    1
   100   188   187   ar
   101     3     2    1
   102    97    95   ar
   103    34    36    1
   104    34    31    1
   105    38    37    1
   106    38    39    1
   107    98    96   ar
   108    62    60   am
   109    37    32   am
   110    25    24    2
   111    32    33    2
   112    32    31    1
   113     1     2    1
   114     5     2    1
   115     5     6    1
   116    95    96   ar
   117    95    94    1
   118     7     6    1
   119     7     8    1
   120    31    30    1
   121    30    28   am
   122    60    61    2
   123    60    59    1
   124    40    39    2
   125    24    23    1
   126    24    26   am
   127    94    91    1
   128     8     9    1
   129    23    22    1
   130    27    28    1
   131    27    26    1
   132    28    29    2
   133    59    58    1
   134   104   103    2
   135    85    83   ar
   136   105   106    1
   137   105   107    1
   138   105   102    1
   139    91    92    1
   140    91    90    1
   141   103   102    1
   142   101    92   am
   143   101   102    1
   144    84    83   ar
   145    83    82    1
   146    58    55    1
   147    92    93    2
   148    90    88   am
   149    44    43    2
   150    82    79    1
   151    55    54    1
   152    55    56    1
   153    54    48   am
   154    45    42    1
   155    52    51    2
   156    69    68   ar
   157    43    42    1
   158    43    46   am
   159    88    89    2
   160    88    87    1
   161    48    47    1
   162    48    49    2
   163    47    46    1
   164    47    50    1
   165    68    70   ar
   166    68    67    1
   167    42    41    1
   168    79    78    1
   169    79    80    1
   170    56    57    2
   171    51    50    1
   172    51    53   am
   173    67    64    1
   174    87    86    1
   175    66    65    2
   176    80    81    2
   177    77    75    1
   178    64    65    1
   179    64    63    1
   180    74    73    2
   181    76    75    1
   182    75    72    1
   183    73    72    1
   184    72    71    1
