@<TRIPOS>MOLECULE
tmp/1ib4A05.pdb
 64 61 0 0 0
SMALL
GASTEIGER

@<TRIPOS>ATOM
      1  N         37.9200  -12.7330   15.8760 N.3     1  ALA1       -0.1231
      2  CA        38.6950  -12.8480   14.6480 C.3     1  ALA1        0.1694
      3  C         38.1160  -11.9650   13.5480 C.2     1  ALA1        0.2592
      4  O         37.2380  -12.3910   12.8000 O.2     1  ALA1       -0.2718
      5  CB        38.7420  -14.2900   14.1720 C.3     1  ALA1        0.0304
      6  N         38.6270  -10.7420   13.4680 N.am    2  THR2       -0.1953
      7  CA        38.1640   -9.7860   12.4750 C.3     2  THR2        0.1897
      8  C         38.5530  -10.1670   11.0520 C.2     2  THR2        0.2313
      9  O         39.5290  -10.8640   10.7900 O.2     2  THR2       -0.2863
     10  CB        38.7350   -8.3820   12.7680 C.3     2  THR2        0.1794
     11  OG1       40.1360   -8.3890   12.4850 O.3     2  THR2       -0.2208
     12  CG2       38.5790   -8.0370   14.2370 C.3     2  THR2        0.0378
     13  N         46.3810   -3.0290   10.9530 N.3    20  THR20      -0.1203
     14  CA        46.7710   -3.6560   12.2150 C.3    20  THR20       0.1994
     15  C         45.5450   -3.9290   13.0720 C.2    20  THR20       0.2619
     16  O         45.6490   -4.2600   14.2530 O.2    20  THR20      -0.2717
     17  CB        47.7870   -2.8230   13.0190 C.3    20  THR20       0.1784
     18  OG1       47.2900   -1.5010   13.2340 O.3    20  THR20      -0.2211
     19  CG2       49.0890   -2.6900   12.2330 C.3    20  THR20       0.0376
     20  N         44.3790   -3.7930   12.4530 N.am   21  SER21      -0.1937
     21  CA        43.1390   -4.0780   13.1720 C.3    21  SER21       0.2055
     22  C         42.4120   -5.2580   12.5410 C.2    21  SER21       0.2643
     23  O         41.3050   -5.5900   12.9650 O.2    21  SER21      -0.2714
     24  CB        42.2540   -2.8280   13.1880 C.3    21  SER21       0.2130
     25  OG        42.8660   -1.8040   13.9650 O.3    21  SER21      -0.2179
     26  N         43.0340   -5.8750   11.5400 N.am   22  CYS22      -0.1953
     27  CA        42.4180   -6.9130   10.7270 C.3    22  CYS22       0.1843
     28  C         43.1980   -8.2130   10.7670 C.2    22  CYS22       0.2626
     29  O         44.3530   -8.2320   10.3360 O.2    22  CYS22      -0.2714
     30  CB        42.3260   -6.4340    9.2710 C.3    22  CYS22       0.0997
     31  SG        41.4040   -4.8900    9.0310 S.3    22  CYS22      -0.0797
     32  N         42.6280   -9.3160   11.2480 N.am   23  SER23      -0.1950
     33  CA        43.3880  -10.5730   11.2180 C.3    23  SER23       0.1924
     34  C         43.5220  -11.0870    9.7860 C.2    23  SER23       0.2314
     35  O         44.4780  -11.7510    9.4000 O.2    23  SER23      -0.2863
     36  CB        42.7140  -11.6490   12.0680 C.3    23  SER23       0.2116
     37  OG        42.2520  -11.1040   13.3020 O.3    23  SER23      -0.2180
     38  N         50.4150   -7.1580   11.6110 N.3    44  ASN44      -0.1225
     39  CA        50.5020   -7.9010   12.8650 C.3    44  ASN44       0.1785
     40  C         50.8550   -9.3660   12.5970 C.2    44  ASN44       0.2597
     41  O         50.4090   -9.9540   11.6120 O.2    44  ASN44      -0.2718
     42  CB        49.1920   -7.8560   13.6420 C.3    44  ASN44       0.1169
     43  CG        48.9720   -6.5370   14.3500 C.2    44  ASN44       0.2627
     44  OD1       49.9350   -5.8470   14.6830 O.2    44  ASN44      -0.2716
     45  ND2       47.7050   -6.2130   14.5700 N.am   44  ASN44      -0.0877
     46  N         51.6470   -9.9090   13.5100 N.am   45  ASP45      -0.1960
     47  CA        52.0880  -11.2900   13.4790 C.3    45  ASP45       0.1840
     48  C         50.9140  -12.2140   13.1810 C.2    45  ASP45       0.2623
     49  O         49.9020  -12.1320   13.8710 O.2    45  ASP45      -0.2715
     50  CB        52.7360  -11.6930   14.8110 C.3    45  ASP45       0.1450
     51  CG        53.2140  -13.1360   14.7590 C.2    45  ASP45       0.3671
     52  OD1       54.2990  -13.3660   14.1850 O.co2  45  ASP45      -0.2456
     53  OD2       52.5100  -14.0320   15.2780 O.co2  45  ASP45      -0.2456
     54  N         51.0530  -13.0520   12.1620 N.am   46  GLY46      -0.1940
     55  CA        50.0030  -13.9780   11.7940 C.3    46  GLY46       0.2014
     56  C         48.9800  -13.4490   10.8210 C.2    46  GLY46       0.2639
     57  O         48.0580  -14.1830   10.4440 O.2    46  GLY46      -0.2714
     58  N         49.0750  -12.2010   10.3650 N.am   47  THR47      -0.1950
     59  CA        48.0630  -11.7030    9.4370 C.3    47  THR47       0.1897
     60  C         47.9300  -12.5220    8.1540 C.2    47  THR47       0.2313
     61  O         48.9030  -13.0190    7.5890 O.2    47  THR47      -0.2863
     62  CB        48.3710  -10.2320    9.0780 C.3    47  THR47       0.1794
     63  OG1       48.3860   -9.4790   10.2940 O.3    47  THR47      -0.2208
     64  CG2       47.2990   -9.6170    8.1940 C.3    47  THR47       0.0378
@<TRIPOS>BOND
     1    61    60    2
     2    60    59    1
     3    64    62    1
     4    31    30    1
     5    62    59    1
     6    62    63    1
     7    30    27    1
     8    35    34    2
     9    59    58    1
    10    34    33    1
    11    29    28    2
    12    58    56   am
    13    57    56    2
    14    27    28    1
    15    27    26    1
    16    28    32   am
    17     9     8    2
    18    56    55    1
    19    13    14    1
    20     8     7    1
    21    33    32    1
    22    33    36    1
    23    26    22   am
    24    38    39    1
    25    41    40    2
    26    55    54    1
    27    36    37    1
    28    54    48   am
    29    14    17    1
    30    14    15    1
    31    19    17    1
    32    20    15   am
    33    20    21    1
    34     7    10    1
    35     7     6    1
    36    11    10    1
    37    22    23    2
    38    22    21    1
    39    40    39    1
    40    40    46   am
    41    10    12    1
    42     4     3    2
    43    39    42    1
    44    17    18    1
    45    15    16    2
    46    21    24    1
    47    48    47    1
    48    48    49    2
    49    24    25    1
    50     6     3   am
    51    47    46    1
    52    47    50    1
    53     3     2    1
    54    42    43    1
    55     5     2    1
    56    52    51   ar
    57    43    45   am
    58    43    44    2
    59     2     1    1
    60    51    50    1
    61    51    53   ar
