@<TRIPOS>MOLECULE
tmp/1ibcB00.pdb
 91 92 0 0 0
SMALL
GASTEIGER

@<TRIPOS>ATOM
      1  N         39.7130   57.8060    9.1730 N.3    22  VAL22      -0.1231
      2  CA        38.9520   58.8260    8.4680 C.3    22  VAL22       0.1692
      3  C         39.8020   60.0570    8.2020 C.2    22  VAL22       0.2593
      4  O         40.9370   60.1400    8.6670 O.2    22  VAL22      -0.2718
      5  CB        37.7240   59.2630    9.2900 C.3    22  VAL22       0.0266
      6  CG1       36.8320   58.0680    9.5800 C.3    22  VAL22       0.0020
      7  CG2       38.1660   59.9090   10.5840 C.3    22  VAL22       0.0020
      8  N         39.2240   61.0060    7.4670 N.am   23  SER23      -0.1938
      9  CA        39.8660   62.2680    7.1140 C.3    23  SER23       0.2055
     10  C         38.7970   63.3080    7.3800 C.2    23  SER23       0.2643
     11  O         37.6030   63.0080    7.2960 O.2    23  SER23      -0.2714
     12  CB        40.2600   62.2780    5.6380 C.3    23  SER23       0.2130
     13  OG        41.1530   61.2140    5.3450 O.3    23  SER23      -0.2179
     14  N         39.2080   64.5240    7.7010 N.am   24  TRP24      -0.1959
     15  CA        38.2480   65.5690    8.0240 C.3    24  TRP24       0.1771
     16  C         37.8790   66.4900    6.8790 C.2    24  TRP24       0.2620
     17  O         38.6320   66.6170    5.9110 O.2    24  TRP24      -0.2715
     18  CB        38.7460   66.3590    9.2300 C.3    24  TRP24       0.0590
     19  CG        39.0280   65.4690   10.3860 C.ar   24  TRP24       0.0006
     20  CD1       40.2370   64.9400   10.7380 C.ar   24  TRP24       0.0946
     21  CD2       38.0780   64.9520   11.3170 C.ar   24  TRP24       0.0152
     22  NE1       40.0960   64.1170   11.8270 N.ar   24  TRP24      -0.2442
     23  CE2       38.7790   64.1050   12.2040 C.ar   24  TRP24       0.0810
     24  CE3       36.7000   65.1240   11.4930 C.ar   24  TRP24       0.0012
     25  CZ2       38.1490   63.4280   13.2490 C.ar   24  TRP24       0.0191
     26  CZ3       36.0710   64.4520   12.5330 C.ar   24  TRP24       0.0001
     27  CH2       36.7990   63.6140   13.3990 C.ar   24  TRP24       0.0015
     28  N         36.7410   67.1690    7.0280 N.am   25  ARG25      -0.1963
     29  CA        36.2210   68.0690    6.0060 C.3    25  ARG25       0.1729
     30  C         35.2920   69.1120    6.6440 C.2    25  ARG25       0.2616
     31  O         34.5110   68.7800    7.5290 O.2    25  ARG25      -0.2715
     32  CB        35.4330   67.2330    4.9900 C.3    25  ARG25       0.0348
     33  CG        35.2750   67.8300    3.5960 C.3    25  ARG25       0.0492
     34  CD        34.3010   66.9990    2.7610 C.3    25  ARG25       0.2205
     35  NE        32.9260   67.1460    3.2390 N.pl3  25  ARG25      -0.0865
     36  CZ        32.2060   66.1890    3.8190 C.cat  25  ARG25       0.5346
     37  NH1       32.7060   64.9750    4.0100 N.pl3  25  ARG25       0.1354
     38  NH2       30.9760   66.4590    4.2350 N.pl3  25  ARG25       0.1354
     39  N         35.3780   70.3650    6.2050 N.am   26  HIS26      -0.1960
     40  CA        34.5330   71.4410    6.7340 C.3    26  HIS26       0.1772
     41  C         33.6810   72.0440    5.5980 C.2    26  HIS26       0.2462
     42  O         34.2200   72.4500    4.5670 O.2    26  HIS26      -0.2730
     43  CB        35.4100   72.5270    7.3750 C.3    26  HIS26       0.0785
     44  CG        34.6390   73.5790    8.1150 C.ar   26  HIS26       0.0821
     45  ND1       33.9160   73.3100    9.2570 N.ar   26  HIS26      -0.2267
     46  CD2       34.4710   74.9000    7.8700 C.ar   26  HIS26       0.1154
     47  CE1       33.3350   74.4170    9.6820 C.ar   26  HIS26       0.1986
     48  NE2       33.6560   75.3970    8.8570 N.ar   26  HIS26      -0.2212
     49  N         32.3580   72.1850    5.8060 N.am   27  PRO27      -0.2727
     50  CA        31.3930   72.7330    4.8380 C.3    27  PRO27       0.1402
     51  C         31.7610   74.0460    4.1410 C.2    27  PRO27       0.2269
     52  O         31.3240   74.2970    3.0220 O.2    27  PRO27      -0.2865
     53  CB        30.1340   72.9010    5.6830 C.3    27  PRO27       0.0296
     54  CG        30.2400   71.7800    6.6520 C.3    27  PRO27       0.0237
     55  CD        31.6810   71.8580    7.0720 C.3    27  PRO27       0.0939
     56  N         35.1780   75.2590    4.4580 N.3    29  MET29      -0.1230
     57  CA        36.6420   75.2880    4.4670 C.3    29  MET29       0.1702
     58  C         37.2150   74.1060    3.6890 C.2    29  MET29       0.2593
     59  O         38.4210   74.0420    3.4420 O.2    29  MET29      -0.2718
     60  CB        37.1850   75.2520    5.8980 C.3    29  MET29       0.0401
     61  CG        37.0450   76.5540    6.6760 C.3    29  MET29       0.0596
     62  SD        37.6120   76.3760    8.3900 S.3    29  MET29      -0.1393
     63  CE        39.3860   76.4870    8.1700 C.3    29  MET29       0.0692
     64  N         36.3460   73.1820    3.2940 N.am   30  GLY30      -0.1942
     65  CA        36.7890   72.0170    2.5600 C.3    30  GLY30       0.2014
     66  C         37.6940   71.1140    3.3690 C.2    30  GLY30       0.2640
     67  O         37.8290   71.2650    4.5800 O.2    30  GLY30      -0.2714
     68  N         38.3190   70.1670    2.6910 N.am   31  SER31      -0.1935
     69  CA        39.2050   69.2270    3.3370 C.3    31  SER31       0.2055
     70  C         40.4700   69.8900    3.8310 C.2    31  SER31       0.2642
     71  O         41.0820   70.6910    3.1260 O.2    31  SER31      -0.2714
     72  CB        39.5580   68.1270    2.3560 C.3    31  SER31       0.2130
     73  OG        38.3830   67.6160    1.7600 O.3    31  SER31      -0.2179
     74  N         40.8740   69.5220    5.0390 N.am   32  VAL32      -0.1977
     75  CA        42.0910   70.0560    5.6330 C.3    32  VAL32       0.1596
     76  C         43.2910   69.6180    4.8100 C.2    32  VAL32       0.2287
     77  O         44.1660   70.4250    4.5060 O.2    32  VAL32      -0.2864
     78  CB        42.2840   69.5950    7.0980 C.3    32  VAL32       0.0276
     79  CG1       41.7520   70.6370    8.0270 C.3    32  VAL32       0.0022
     80  CG2       41.5740   68.2730    7.3560 C.3    32  VAL32       0.0022
     81  N         40.8670   67.0660   15.6520 N.3    67  ARG67      -0.1245
     82  CA        40.4680   66.4520   14.3910 C.3    67  ARG67       0.1563
     83  C         41.7420   65.8100   13.8020 C.2    67  ARG67       0.2260
     84  O         42.2030   66.1710   12.7140 O.2    67  ARG67      -0.2867
     85  CB        39.9330   67.5490   13.4640 C.3    67  ARG67       0.0307
     86  CG        40.9380   68.6850   13.2320 C.3    67  ARG67       0.0489
     87  CD        40.3510   69.8830   12.5130 C.3    67  ARG67       0.2205
     88  NE        39.6130   70.7770   13.4050 N.pl3  67  ARG67      -0.0865
     89  CZ        40.1340   71.8360   14.0260 C.cat  67  ARG67       0.5346
     90  NH1       41.4150   72.1530   13.8710 N.pl3  67  ARG67       0.1354
     91  NH2       39.3550   72.6070   14.7740 N.pl3  67  ARG67       0.1354
@<TRIPOS>BOND
     1    73    72    1
     2    72    69    1
     3    65    64    1
     4    65    66    1
     5    68    69    1
     6    68    66   am
     7    34    35    1
     8    34    33    1
     9    52    51    2
    10    71    70    2
    11    35    36    2
    12    64    58   am
    13    69    70    1
    14    66    67    2
    15    59    58    2
    16    33    32    1
    17    58    57    1
    18    36    37    1
    19    36    38    1
    20    70    74   am
    21    51    50    1
    22    56    57    1
    23    57    60    1
    24    77    76    2
    25    42    41    2
    26    76    75    1
    27    50    53    1
    28    50    49    1
    29    32    29    1
    30    74    75    1
    31    13    12    1
    32    41    49   am
    33    41    40    1
    34    75    78    1
    35    12     9    1
    36    53    54    1
    37    49    55    1
    38    60    61    1
    39    17    16    2
    40    29    30    1
    41    29    28    1
    42    39    30   am
    43    39    40    1
    44    30    31    2
    45    54    55    1
    46    61    62    1
    47    40    43    1
    48    16    28   am
    49    16    15    1
    50    78    80    1
    51    78    79    1
    52     9    10    1
    53     9     8    1
    54    11    10    2
    55    43    44    1
    56    10    14   am
    57     8     3   am
    58    14    15    1
    59    46    44   ar
    60    46    48   ar
    61    15    18    1
    62    44    45   ar
    63    63    62    1
    64     3     2    1
    65     3     4    2
    66     2     1    1
    67     2     5    1
    68    48    47   ar
    69    18    19    1
    70    45    47   ar
    71     5     6    1
    72     5     7    1
    73    19    20   ar
    74    19    21   ar
    75    20    22   ar
    76    21    24   ar
    77    21    23   ar
    78    24    26   ar
    79    22    23   ar
    80    23    25   ar
    81    87    86    1
    82    87    88    1
    83    26    27   ar
    84    84    83    2
    85    86    85    1
    86    25    27   ar
    87    88    89    2
    88    85    82    1
    89    83    82    1
    90    90    89    1
    91    89    91    1
    92    82    81    1
