@<TRIPOS>MOLECULE
tmp/1ibcA00.pdb
 91 89 0 0 0
SMALL
GASTEIGER

@<TRIPOS>ATOM
      1  N         25.8330   60.5640    3.3460 N.3    47  PRO47      -0.2102
      2  CA        25.7500   62.0210    3.5250 C.3    47  PRO47       0.1504
      3  C         26.5950   62.8400    2.5370 C.2    47  PRO47       0.2576
      4  O         27.7890   62.5760    2.3380 O.2    47  PRO47      -0.2718
      5  CB        26.1970   62.2200    4.9830 C.3    47  PRO47       0.0282
      6  CG        26.9880   60.9650    5.3030 C.3    47  PRO47       0.0208
      7  CD        26.1710   59.9050    4.6210 C.3    47  PRO47       0.0893
      8  N         25.9480   63.8200    1.9140 N.am   48  ARG48      -0.1966
      9  CA        26.5860   64.7020    0.9450 C.3    48  ARG48       0.1729
     10  C         27.9110   65.2700    1.4520 C.2    48  ARG48       0.2616
     11  O         28.0070   65.7050    2.6010 O.2    48  ARG48      -0.2715
     12  CB        25.6410   65.8560    0.5860 C.3    48  ARG48       0.0348
     13  CG        26.2910   66.9350   -0.2650 C.3    48  ARG48       0.0492
     14  CD        25.3680   68.1060   -0.5320 C.3    48  ARG48       0.2205
     15  NE        26.0710   69.1840   -1.2280 N.pl3  48  ARG48      -0.0865
     16  CZ        25.5310   69.9570   -2.1670 C.cat  48  ARG48       0.5346
     17  NH1       24.2680   69.7810   -2.5380 N.pl3  48  ARG48       0.1354
     18  NH2       26.2580   70.9050   -2.7480 N.pl3  48  ARG48       0.1354
     19  N         28.9260   65.2700    0.5890 N.am   49  ARG49      -0.1963
     20  CA        30.2320   65.7990    0.9500 C.3    49  ARG49       0.1729
     21  C         30.2500   67.3120    0.8040 C.2    49  ARG49       0.2616
     22  O         30.8790   67.8580   -0.1130 O.2    49  ARG49      -0.2715
     23  CB        31.3450   65.1610    0.1060 C.3    49  ARG49       0.0348
     24  CG        31.5520   63.6880    0.3870 C.3    49  ARG49       0.0492
     25  CD        32.6820   63.1010   -0.4270 C.3    49  ARG49       0.2205
     26  NE        33.9760   63.6630   -0.0710 N.pl3  49  ARG49      -0.0865
     27  CZ        34.6030   64.6040   -0.7690 C.cat  49  ARG49       0.5346
     28  NH1       34.0590   65.0960   -1.8740 N.pl3  49  ARG49       0.1354
     29  NH2       35.7760   65.0590   -0.3560 N.pl3  49  ARG49       0.1354
     30  N         29.5490   67.9840    1.7110 N.am   50  THR50      -0.1951
     31  CA        29.4720   69.4380    1.7150 C.3    50  THR50       0.1897
     32  C         30.8740   70.0260    1.8810 C.2    50  THR50       0.2313
     33  O         31.5990   69.6750    2.8060 O.2    50  THR50      -0.2863
     34  CB        28.5560   69.9400    2.8640 C.3    50  THR50       0.1794
     35  OG1       27.2380   69.3950    2.6990 O.3    50  THR50      -0.2208
     36  CG2       28.4750   71.4720    2.8770 C.3    50  THR50       0.0378
     37  N         36.3430   61.9010   -2.4260 N.3   106  SER106     -0.1202
     38  CA        35.0400   61.3150   -2.1550 C.3   106  SER106      0.2020
     39  C         35.1520   60.4520   -0.9310 C.2   106  SER106      0.2619
     40  O         36.2420   60.2750   -0.3920 O.2   106  SER106     -0.2717
     41  CB        34.5490   60.4750   -3.3310 C.3   106  SER106      0.2103
     42  OG        35.4710   59.4610   -3.6560 O.3   106  SER106     -0.2182
     43  N         34.0200   59.9330   -0.4730 N.am  107  HIS107     -0.1961
     44  CA        34.0320   59.0710    0.6900 C.3   107  HIS107      0.1787
     45  C         34.8520   57.8530    0.3180 C.2   107  HIS107      0.2620
     46  O         35.1240   57.6130   -0.8510 O.2   107  HIS107     -0.2715
     47  CB        32.6100   58.6570    1.0780 C.3   107  HIS107      0.0785
     48  CG        31.8110   59.7530    1.7160 C.ar  107  HIS107      0.0821
     49  ND1       32.0630   60.2160    2.9900 N.ar  107  HIS107     -0.2267
     50  CD2       30.7690   60.4820    1.2540 C.ar  107  HIS107      0.1154
     51  CE1       31.2150   61.1860    3.2830 C.ar  107  HIS107      0.1986
     52  NE2       30.4180   61.3670    2.2460 N.ar  107  HIS107     -0.2212
     53  N         35.2580   57.0840    1.3100 N.am  108  GLY108     -0.1954
     54  CA        36.0290   55.9020    1.0090 C.3   108  GLY108      0.1869
     55  C         36.1140   54.9460    2.1720 C.2   108  GLY108      0.2309
     56  O         35.7090   55.2600    3.2910 O.2   108  GLY108     -0.2863
     57  N         41.6950   62.3180   -1.5070 N.3   153  GLN153     -0.1231
     58  CA        41.0420   62.9060   -0.3570 C.3   153  GLN153      0.1698
     59  C         39.8510   62.0030   -0.0970 C.2   153  GLN153      0.2592
     60  O         38.7870   62.1660   -0.6910 O.2   153  GLN153     -0.2718
     61  CB        40.5640   64.3200   -0.6920 C.3   153  GLN153      0.0381
     62  CG        39.6110   64.9220    0.3280 C.3   153  GLN153      0.0905
     63  CD        40.2010   64.9700    1.7280 C.2   153  GLN153      0.2608
     64  OE1       41.4010   65.1600    1.9050 O.2   153  GLN153     -0.2717
     65  NE2       39.3560   64.8180    2.7300 N.am  153  GLN153     -0.0878
     66  N         40.0420   61.0240    0.7710 N.am  154  ALA154     -0.1966
     67  CA        38.9750   60.0950    1.0800 C.3   154  ALA154      0.1728
     68  C         39.2240   59.3900    2.3910 C.2   154  ALA154      0.2616
     69  O         40.3730   59.2160    2.7960 O.2   154  ALA154     -0.2715
     70  CB        38.8660   59.0730   -0.0210 C.3   154  ALA154      0.0334
     71  N         38.1420   59.0100    3.0620 N.am  155  CYS155     -0.1968
     72  CA        38.2380   58.2770    4.3190 C.3   155  CYS155      0.1712
     73  C         38.7970   56.9170    3.9690 C.2   155  CYS155      0.2296
     74  O         38.6010   56.4160    2.8640 O.2   155  CYS155     -0.2864
     75  CB        36.8610   58.0900    4.9650 C.3   155  CYS155      0.0983
     76  SG        36.2460   59.5840    5.7670 S.3   155  CYS155     -0.0798
     77  N         36.5390   53.9040    9.3030 N.3   158  ASP158     -0.1239
     78  CA        35.7170   54.5920   10.3000 C.3   158  ASP158      0.1674
     79  C         36.4730   54.9660   11.5750 C.2   158  ASP158      0.2266
     80  O         36.0460   55.8590   12.3120 O.2   158  ASP158     -0.2867
     81  CB        34.4880   53.7530   10.6510 C.3   158  ASP158      0.1410
     82  CG        33.5710   53.5420    9.4580 C.2   158  ASP158      0.3668
     83  OD1       32.9200   54.5220    9.0240 O.co2 158  ASP158     -0.2456
     84  OD2       33.5100   52.4020    8.9480 O.co2 158  ASP158     -0.2456
     85  N         38.9050   56.6140   14.2030 N.3   160  PRO160     -0.2116
     86  CA        39.3140   58.0160   14.3550 C.3   160  PRO160      0.1372
     87  C         40.8390   58.2540   14.3560 C.2   160  PRO160      0.2244
     88  O         41.3110   59.3860   14.5450 O.2   160  PRO160     -0.2868
     89  CB        38.6440   58.4180   15.6620 C.3   160  PRO160      0.0268
     90  CG        38.6880   57.1380   16.4450 C.3   160  PRO160      0.0207
     91  CD        38.2540   56.1230   15.4340 C.3   160  PRO160      0.0892
@<TRIPOS>BOND
     1    42    41    1
     2    41    38    1
     3    18    16    1
     4    17    16    1
     5    37    38    1
     6    16    15    2
     7    38    39    1
     8    28    27    1
     9    57    58    1
    10    15    14    1
    11    39    43   am
    12    39    40    2
    13    46    45    2
    14    27    29    1
    15    27    26    2
    16    61    58    1
    17    61    62    1
    18    60    59    2
    19    14    13    1
    20    43    44    1
    21    25    26    1
    22    25    24    1
    23    58    59    1
    24    13    12    1
    25    22    21    2
    26    59    66   am
    27    70    67    1
    28    23    24    1
    29    23    20    1
    30    45    44    1
    31    45    53   am
    32    62    63    1
    33    12     9    1
    34    19    20    1
    35    19    10   am
    36    44    47    1
    37    66    67    1
    38    21    20    1
    39    21    30   am
    40     9    10    1
    41     9     8    1
    42    54    53    1
    43    54    55    1
    44    47    48    1
    45    67    68    1
    46    50    48   ar
    47    50    52   ar
    48    10    11    2
    49    30    31    1
    50    31    32    1
    51    31    34    1
    52    48    49   ar
    53    63    64    2
    54    63    65   am
    55    32    33    2
    56     8     3   am
    57    55    56    2
    58    52    51   ar
    59     4     3    2
    60    68    69    2
    61    68    71   am
    62     3     2    1
    63    35    34    1
    64    34    36    1
    65    74    73    2
    66    49    51   ar
    67    71    72    1
    68     1     2    1
    69     1     7    1
    70     2     5    1
    71    73    72    1
    72    72    75    1
    73     7     6    1
    74    75    76    1
    75     5     6    1
    76    84    82   ar
    77    83    82   ar
    78    77    78    1
    79    82    81    1
    80    78    81    1
    81    78    79    1
    82    79    80    2
    83    85    86    1
    84    85    91    1
    85    86    87    1
    86    86    89    1
    87    87    88    2
    88    91    90    1
    89    89    90    1
