@<TRIPOS>MOLECULE
tmp/1ibgB00.pdb
 111 112 0 0 0
SMALL
GASTEIGER

@<TRIPOS>ATOM
      1  N         -4.1780   19.5870   30.8080 N.3    34  HIS34      -0.1241
      2  CA        -3.1540   19.1170   29.8670 C.3    34  HIS34       0.1621
      3  C         -3.5520   19.6290   28.4830 C.2    34  HIS34       0.2264
      4  O         -4.7230   19.8520   28.1250 O.2    34  HIS34      -0.2867
      5  CB        -3.0920   17.6270   29.7000 C.3    34  HIS34       0.0745
      6  CG        -2.5540   16.8210   30.8150 C.ar   34  HIS34       0.0817
      7  ND1       -3.3360   16.1200   31.7000 N.ar   34  HIS34      -0.2268
      8  CD2       -1.2850   16.6070   31.2120 C.ar   34  HIS34       0.1154
      9  CE1       -2.5880   15.5170   32.5980 C.ar   34  HIS34       0.1986
     10  NE2       -1.3380   15.8010   32.3160 N.ar   34  HIS34      -0.2212
     11  N          2.0160   14.6550   24.1960 N.3    46  TRP46      -0.1241
     12  CA         1.7700   15.5570   25.3080 C.3    46  TRP46       0.1605
     13  C          2.6130   16.8200   25.0880 C.2    46  TRP46       0.2264
     14  O          3.7840   16.7630   24.7090 O.2    46  TRP46      -0.2867
     15  CB         2.1270   14.8470   26.6720 C.3    46  TRP46       0.0550
     16  CG         2.0920   15.7080   27.9180 C.ar   46  TRP46       0.0003
     17  CD1        0.9740   16.2680   28.4470 C.ar   46  TRP46       0.0946
     18  CD2        3.1780   16.1440   28.7680 C.ar   46  TRP46       0.0152
     19  NE1        1.2860   17.0230   29.5510 N.ar   46  TRP46      -0.2442
     20  CE2        2.6190   16.9690   29.7800 C.ar   46  TRP46       0.0810
     21  CE3        4.5690   15.9640   28.8040 C.ar   46  TRP46       0.0012
     22  CZ2        3.3570   17.5980   30.7910 C.ar   46  TRP46       0.0191
     23  CZ3        5.3340   16.5920   29.7980 C.ar   46  TRP46       0.0001
     24  CH2        4.7210   17.3980   30.7780 C.ar   46  TRP46       0.0015
     25  N          1.3580   20.5780   30.9290 N.3    49  LEU49      -0.1245
     26  CA         0.3460   20.6780   31.9580 C.3    49  LEU49       0.1561
     27  C          0.4580   21.9720   32.7430 C.2    49  LEU49       0.2260
     28  O          1.5850   22.3670   33.0650 O.2    49  LEU49      -0.2867
     29  CB         0.4770   19.5180   32.9330 C.3    49  LEU49       0.0270
     30  CG        -0.4750   19.4830   34.1320 C.3    49  LEU49       0.0019
     31  CD1       -1.9040   19.1690   33.7110 C.3    49  LEU49       0.0001
     32  CD2        0.1360   18.5270   35.1220 C.3    49  LEU49       0.0001
     33  N         -0.8350   22.9340   36.1920 N.3    51  TRP51      -0.1241
     34  CA        -1.4720   22.4470   37.4100 C.3    51  TRP51       0.1605
     35  C         -2.4160   23.4850   37.9640 C.2    51  TRP51       0.2264
     36  O         -2.3750   24.6230   37.5030 O.2    51  TRP51      -0.2867
     37  CB        -0.5110   22.2190   38.4900 C.3    51  TRP51       0.0550
     38  CG         0.5260   21.2030   38.2490 C.ar   51  TRP51       0.0003
     39  CD1        1.7150   21.3970   37.6200 C.ar   51  TRP51       0.0946
     40  CD2        0.5440   19.9110   38.8520 C.ar   51  TRP51       0.0152
     41  NE1        2.4910   20.3090   37.8500 N.ar   51  TRP51      -0.2442
     42  CE2        1.8280   19.3670   38.5970 C.ar   51  TRP51       0.0810
     43  CE3       -0.3830   19.1620   39.6060 C.ar   51  TRP51       0.0012
     44  CZ2        2.2150   18.0950   39.0850 C.ar   51  TRP51       0.0191
     45  CZ3        0.0130   17.9050   40.0800 C.ar   51  TRP51       0.0001
     46  CH2        1.3020   17.3840   39.8210 C.ar   51  TRP51       0.0015
     47  N         -7.2740   17.2840   34.1830 N.3    97  PHE97      -0.1241
     48  CA        -6.4240   16.4660   35.0560 C.3    97  PHE97       0.1605
     49  C         -7.1000   16.2860   36.4300 C.2    97  PHE97       0.2264
     50  O         -7.0290   17.2130   37.2480 O.2    97  PHE97      -0.2867
     51  CB        -5.0660   17.1500   35.2570 C.3    97  PHE97       0.0534
     52  CG        -4.0570   16.3850   36.0600 C.ar   97  PHE97      -0.0203
     53  CD1       -3.9610   14.9900   35.9810 C.ar   97  PHE97      -0.0042
     54  CD2       -3.1790   17.0760   36.8980 C.ar   97  PHE97      -0.0042
     55  CE1       -3.0100   14.3100   36.7230 C.ar   97  PHE97      -0.0003
     56  CE2       -2.2160   16.3930   37.6460 C.ar   97  PHE97      -0.0003
     57  CZ        -2.1360   15.0080   37.5570 C.ar   97  PHE97      -0.0000
     58  N         -6.6780   15.2050   39.8310 N.3    99  PHE99      -0.1241
     59  CA        -5.6230   14.7830   40.7600 C.3    99  PHE99       0.1605
     60  C         -6.2910   14.7880   42.1360 C.2    99  PHE99       0.2264
     61  O         -7.0040   15.7590   42.4410 O.2    99  PHE99      -0.2867
     62  CB        -4.4620   15.7630   40.8550 C.3    99  PHE99       0.0534
     63  CG        -3.2550   15.2960   41.6080 C.ar   99  PHE99      -0.0203
     64  CD1       -2.6240   14.1010   41.3010 C.ar   99  PHE99      -0.0042
     65  CD2       -2.7010   16.0950   42.5870 C.ar   99  PHE99      -0.0042
     66  CE1       -1.4520   13.7080   41.9450 C.ar   99  PHE99      -0.0003
     67  CE2       -1.5300   15.7310   43.2470 C.ar   99  PHE99      -0.0003
     68  CZ        -0.9040   14.5360   42.9200 C.ar   99  PHE99      -0.0000
     69  N         -1.1150   11.3490   44.7220 N.3   102  TYR102     -0.1227
     70  CA        -0.2060   10.5680   43.9200 C.3   102  TYR102      0.1736
     71  C         -0.6350    9.1670   43.5740 C.2   102  TYR102      0.2595
     72  O          0.0430    8.4900   42.7960 O.2   102  TYR102     -0.2718
     73  CB         1.0890   10.4430   44.6180 C.3   102  TYR102      0.0548
     74  CG         1.8580   11.7100   44.5630 C.ar  102  TYR102     -0.0200
     75  CD1        1.7220   12.5590   43.4570 C.ar  102  TYR102     -0.0009
     76  CD2        2.7420   12.0480   45.5920 C.ar  102  TYR102     -0.0009
     77  CE1        2.4650   13.7370   43.3620 C.ar  102  TYR102      0.0417
     78  CE2        3.4970   13.2230   45.5070 C.ar  102  TYR102      0.0417
     79  CZ         3.3630   14.0730   44.3830 C.ar  102  TYR102      0.1957
     80  OH         4.1440   15.2160   44.2380 O.3   102  TYR102     -0.2866
     81  N         -1.6940    8.6960   44.2210 N.am  103  TYR103     -0.1976
     82  CA        -2.1880    7.3550   43.9990 C.3   103  TYR103      0.1639
     83  C         -3.6200    7.4300   43.5070 C.2   103  TYR103      0.2290
     84  O         -4.3180    6.4210   43.5900 O.2   103  TYR103     -0.2864
     85  CB        -2.0820    6.5690   45.3200 C.3   103  TYR103      0.0560
     86  CG        -0.7270    6.6060   45.9950 C.ar  103  TYR103     -0.0198
     87  CD1        0.4900    6.3550   45.3370 C.ar  103  TYR103     -0.0009
     88  CD2       -0.6850    6.8960   47.3550 C.ar  103  TYR103     -0.0009
     89  CE1        1.7090    6.3870   46.0330 C.ar  103  TYR103      0.0417
     90  CE2        0.5210    6.9280   48.0580 C.ar  103  TYR103      0.0417
     91  CZ         1.7190    6.6710   47.4080 C.ar  103  TYR103      0.1957
     92  OH         2.8750    6.6530   48.1730 O.3   103  TYR103     -0.2866
     93  N         -5.3420    9.7840   40.4170 N.3   105  TYR105     -0.1241
     94  CA        -5.4410   10.8800   39.4540 C.3   105  TYR105      0.1605
     95  C         -5.7490   10.2730   38.1200 C.2   105  TYR105      0.2264
     96  O         -5.4400    9.0950   37.9420 O.2   105  TYR105     -0.2867
     97  CB        -4.1540   11.6730   39.3170 C.3   105  TYR105      0.0534
     98  CG        -2.9410   10.8690   38.9630 C.ar  105  TYR105     -0.0201
     99  CD1       -2.6550   10.5370   37.6350 C.ar  105  TYR105     -0.0009
    100  CD2       -2.0750   10.4360   39.9670 C.ar  105  TYR105     -0.0009
    101  CE1       -1.5360    9.7930   37.3090 C.ar  105  TYR105      0.0417
    102  CE2       -0.9540    9.6770   39.6520 C.ar  105  TYR105      0.0417
    103  CZ        -0.6950    9.3620   38.3210 C.ar  105  TYR105      0.1957
    104  OH         0.4110    8.6000   37.9990 O.3   105  TYR105     -0.2866
    105  N         -6.4440   11.5810   33.6170 N.3   107  VAL107     -0.1245
    106  CA        -6.5910   12.6610   32.6640 C.3   107  VAL107      0.1561
    107  C         -7.9630   12.2200   32.1650 C.2   107  VAL107      0.2260
    108  O         -8.0970   11.3630   31.2930 O.2   107  VAL107     -0.2867
    109  CB        -5.4970   12.5570   31.6340 C.3   107  VAL107      0.0252
    110  CG1       -5.6570   13.6390   30.5970 C.3   107  VAL107      0.0019
    111  CG2       -4.1700   12.6610   32.3450 C.3   107  VAL107      0.0019
@<TRIPOS>BOND
     1    11    12    1
     2    14    13    2
     3    13    12    1
     4    12    15    1
     5    15    16    1
     6    16    17   ar
     7    16    18   ar
     8     4     3    2
     9    17    19   ar
    10     3     2    1
    11    18    21   ar
    12    18    20   ar
    13    21    23   ar
    14    19    20   ar
    15     5     2    1
    16     5     6    1
    17    20    22   ar
    18    23    24   ar
    19     2     1    1
    20   110   109    1
    21    24    22   ar
    22     6     8   ar
    23     6     7   ar
    24    25    26    1
    25     8    10   ar
    26   108   107    2
    27   109   111    1
    28   109   106    1
    29     7     9   ar
    30    26    27    1
    31    26    29    1
    32   107   106    1
    33    10     9   ar
    34   106   105    1
    35    27    28    2
    36    29    30    1
    37    31    30    1
    38    30    32    1
    39    47    48    1
    40    48    51    1
    41    48    49    1
    42    51    52    1
    43    53    52   ar
    44    53    55   ar
    45    52    54   ar
    46    33    34    1
    47    49    50    2
    48    55    57   ar
    49    54    56   ar
    50   101    99   ar
    51   101   103   ar
    52    34    35    1
    53    34    37    1
    54    36    35    2
    55    57    56   ar
    56    39    41   ar
    57    39    38   ar
    58    99    98   ar
    59    41    42   ar
    60    96    95    2
    61   104   103    1
    62    95    94    1
    63    38    37    1
    64    38    40   ar
    65   103   102   ar
    66    42    40   ar
    67    42    44   ar
    68    40    43   ar
    69    98    97    1
    70    98   100   ar
    71    44    46   ar
    72    97    94    1
    73    94    93    1
    74    43    45   ar
    75   102   100   ar
    76    46    45   ar
    77    58    59    1
    78    59    62    1
    79    59    60    1
    80    62    63    1
    81    64    63   ar
    82    64    66   ar
    83    63    65   ar
    84    66    68   ar
    85    60    61    2
    86    65    67   ar
    87    72    71    2
    88    68    67   ar
    89    77    75   ar
    90    77    79   ar
    91    75    74   ar
    92    83    84    2
    93    83    82    1
    94    71    70    1
    95    71    81   am
    96    70    73    1
    97    70    69    1
    98    82    81    1
    99    82    85    1
   100    80    79    1
   101    79    78   ar
   102    74    73    1
   103    74    76   ar
   104    85    86    1
   105    87    86   ar
   106    87    89   ar
   107    78    76   ar
   108    86    88   ar
   109    89    91   ar
   110    88    90   ar
   111    91    90   ar
   112    91    92    1
