@<TRIPOS>MOLECULE
tmp/1ibgA00.pdb
 88 85 0 0 0
SMALL
GASTEIGER

@<TRIPOS>ATOM
      1  N          6.0310    3.0410   41.0340 N.3    30  THR30      -0.1203
      2  CA         6.6600    3.6350   42.2050 C.3    30  THR30       0.1994
      3  C          5.8050    3.1210   43.3440 C.2    30  THR30       0.2618
      4  O          4.5940    3.3990   43.3600 O.2    30  THR30      -0.2717
      5  CB         6.5930    5.1480   42.2610 C.3    30  THR30       0.1784
      6  OG1        6.2790    5.7440   40.9880 O.3    30  THR30      -0.2211
      7  CG2        7.9610    5.6120   42.7130 C.3    30  THR30       0.0376
      8  N          6.4870    2.3540   44.2160 N.am   31  SER31      -0.1951
      9  CA         5.9080    1.6330   45.3560 C.3    31  SER31       0.1924
     10  C          4.9190    0.6560   44.6910 C.2    31  SER31       0.2314
     11  O          5.3140    0.0650   43.6600 O.2    31  SER31      -0.2863
     12  CB         5.1870    2.6230   46.3370 C.3    31  SER31       0.2116
     13  OG         6.0900    3.5750   46.8900 O.3    31  SER31      -0.2180
     14  N          2.0270    3.4650   37.2020 N.3    35  HIS35      -0.1241
     15  CA         1.5080    4.6870   36.5850 C.3    35  HIS35       0.1621
     16  C          1.2780    4.5500   35.0750 C.2    35  HIS35       0.2264
     17  O          2.0710    5.1040   34.3010 O.2    35  HIS35      -0.2867
     18  CB         2.4930    5.8520   36.8830 C.3    35  HIS35       0.0745
     19  CG         2.7420    6.0670   38.3330 C.ar   35  HIS35       0.0817
     20  ND1        1.8710    6.6770   39.2060 N.ar   35  HIS35      -0.2268
     21  CD2        3.8110    5.7160   39.0770 C.ar   35  HIS35       0.1154
     22  CE1        2.3890    6.6930   40.4250 C.ar   35  HIS35       0.1986
     23  NE2        3.5740    6.1140   40.3690 N.ar   35  HIS35      -0.2212
     24  N         -1.9980    4.0940   31.8480 N.3    37  HIS37      -0.1241
     25  CA        -3.3860    4.4350   31.5680 C.3    37  HIS37       0.1621
     26  C         -3.6990    3.8490   30.2110 C.2    37  HIS37       0.2264
     27  O         -2.7630    3.6030   29.4470 O.2    37  HIS37      -0.2867
     28  CB        -3.5410    6.0030   31.5880 C.3    37  HIS37       0.0745
     29  CG        -2.8350    6.6230   32.7720 C.ar   37  HIS37       0.0817
     30  ND1       -3.3210    6.6880   34.0570 N.ar   37  HIS37      -0.2268
     31  CD2       -1.5700    7.0700   32.8990 C.ar   37  HIS37       0.1154
     32  CE1       -2.4190    7.1110   34.9080 C.ar   37  HIS37       0.1986
     33  NE2       -1.3420    7.3530   34.2290 N.ar   37  HIS37      -0.2212
     34  N         -0.4490    4.9630   28.0340 N.3    92  GLN92      -0.1245
     35  CA         0.3170    6.1470   28.3140 C.3    92  GLN92       0.1566
     36  C          0.9200    5.9370   29.6750 C.2    92  GLN92       0.2260
     37  O          0.1990    5.4790   30.5470 O.2    92  GLN92      -0.2867
     38  CB        -0.6440    7.2530   28.3030 C.3    92  GLN92       0.0367
     39  CG         0.0460    8.4810   28.7240 C.3    92  GLN92       0.0905
     40  CD        -0.7890    9.2560   29.6850 C.2    92  GLN92       0.2608
     41  OE1       -0.2170    9.8300   30.5850 O.2    92  GLN92      -0.2717
     42  NE2       -2.0910    9.3360   29.5740 N.am   92  GLN92      -0.0878
     43  N          2.8340    7.7030   33.1320 N.3    94  SER94      -0.1202
     44  CA         2.9920    9.0430   33.6970 C.3    94  SER94       0.2020
     45  C          3.9640    8.9440   34.8440 C.2    94  SER94       0.2619
     46  O          3.8120    9.6050   35.8540 O.2    94  SER94      -0.2717
     47  CB         1.6290    9.6550   34.2000 C.3    94  SER94       0.2103
     48  OG         0.7260    8.9580   35.0700 O.3    94  SER94      -0.2182
     49  N          4.9380    8.0520   34.6930 N.am   95  ARG95      -0.1965
     50  CA         5.9810    7.8380   35.6930 C.3    95  ARG95       0.1729
     51  C          6.8930    9.0470   35.8650 C.2    95  ARG95       0.2619
     52  O          7.4360    9.3170   36.9220 O.2    95  ARG95      -0.2715
     53  CB         6.7810    6.6270   35.2700 C.3    95  ARG95       0.0348
     54  CG         7.9810    6.2810   36.0650 C.3    95  ARG95       0.0492
     55  CD         7.6620    6.1860   37.5510 C.3    95  ARG95       0.2205
     56  NE         8.5060    7.1730   38.2220 N.pl3  95  ARG95      -0.0865
     57  CZ         9.6370    6.9060   38.8580 C.cat  95  ARG95       0.5346
     58  NH1       10.0520    5.6590   39.0670 N.pl3  95  ARG95       0.1354
     59  NH2       10.3140    7.9160   39.3750 N.pl3  95  ARG95       0.1354
     60  N          7.0730    9.7620   34.7830 N.am   96  GLU96      -0.1918
     61  CA         7.9900   10.8730   34.7220 C.3    96  GLU96       0.1949
     62  C          7.4310   11.6470   33.5370 C.2    96  GLU96       0.2658
     63  O          6.5560   11.1880   32.7780 O.2    96  GLU96      -0.2711
     64  CB         9.4120   10.4940   34.3190 C.2    96  GLU96       0.0111
     65  CG        10.3060    9.4370   34.9670 C.2    96  GLU96       0.0838
     66  CD        11.5700    9.0280   34.1820 C.2    96  GLU96       0.3877
     67  OE1       11.6010    9.1270   32.9260 O.co2  96  GLU96      -0.2406
     68  OE2       12.5340    8.5600   34.8370 O.co2  96  GLU96      -0.2406
     69  N          8.1000   12.7790   33.4160 N.am   97  TYR97      -0.1971
     70  CA         7.9690   13.6880   32.3040 C.3    97  TYR97       0.1640
     71  C          9.0730   13.3460   31.3080 C.2    97  TYR97       0.2290
     72  O         10.2400   13.2250   31.6960 O.2    97  TYR97      -0.2864
     73  CB         8.1390   15.1020   32.7910 C.3    97  TYR97       0.0560
     74  CG         6.9760   15.5880   33.5830 C.ar   97  TYR97      -0.0198
     75  CD1        5.6800   15.3320   33.1300 C.ar   97  TYR97      -0.0009
     76  CD2        7.1720   16.3160   34.7510 C.ar   97  TYR97      -0.0009
     77  CE1        4.5750   15.7950   33.8170 C.ar   97  TYR97       0.0417
     78  CE2        6.0760   16.7870   35.4520 C.ar   97  TYR97       0.0417
     79  CZ         4.7750   16.5310   34.9820 C.ar   97  TYR97       0.1957
     80  OH         3.6710   17.0600   35.6470 O.3    97  TYR97      -0.2866
     81  N          5.3770   12.5500   29.3770 N.3    99  LEU99      -0.1245
     82  CA         4.2210   11.6750   29.3290 C.3    99  LEU99       0.1561
     83  C          4.0670   11.1970   27.8850 C.2    99  LEU99       0.2260
     84  O          3.5330   11.9070   27.0180 O.2    99  LEU99      -0.2867
     85  CB         2.9220   12.3970   29.7520 C.3    99  LEU99       0.0270
     86  CG         2.8120   13.1550   31.0700 C.3    99  LEU99       0.0019
     87  CD1        1.3690   13.1180   31.3300 C.3    99  LEU99       0.0001
     88  CD2        3.5460   12.5680   32.2560 C.3    99  LEU99       0.0001
@<TRIPOS>BOND
     1    84    83    2
     2    83    82    1
     3    34    35    1
     4    38    35    1
     5    38    39    1
     6    35    36    1
     7    39    40    1
     8    82    81    1
     9    82    85    1
    10    27    26    2
    11    42    40   am
    12    36    37    2
    13    40    41    2
    14    85    86    1
    15    26    25    1
    16    86    87    1
    17    86    88    1
    18    71    72    2
    19    71    70    1
    20    25    28    1
    21    25    24    1
    22    28    29    1
    23    70    73    1
    24    70    69    1
    25    29    31   ar
    26    29    30   ar
    27    63    62    2
    28    73    74    1
    29    31    33   ar
    30    67    66   ar
    31    75    74   ar
    32    75    77   ar
    33    43    44    1
    34    69    62   am
    35    62    61    1
    36    74    76   ar
    37    44    47    1
    38    44    45    1
    39    77    79   ar
    40    30    32   ar
    41    66    68   ar
    42    66    65    1
    43    47    48    1
    44    33    32   ar
    45    17    16    2
    46    64    61    1
    47    64    65    2
    48    49    45   am
    49    49    50    1
    50    61    60    1
    51    76    78   ar
    52    60    51   am
    53    45    46    2
    54    79    78   ar
    55    79    80    1
    56    16    15    1
    57    53    50    1
    58    53    54    1
    59    50    51    1
    60    51    52    2
    61    54    55    1
    62    15    18    1
    63    15    14    1
    64    18    19    1
    65    55    56    1
    66    56    57    2
    67    19    21   ar
    68    19    20   ar
    69    57    58    1
    70    57    59    1
    71    21    23   ar
    72    20    22   ar
    73    23    22   ar
    74     6     5    1
    75     1     2    1
    76     2     5    1
    77     2     3    1
    78     5     7    1
    79     3     4    2
    80     3     8   am
    81    11    10    2
    82     8     9    1
    83    10     9    1
    84     9    12    1
    85    12    13    1
