@<TRIPOS>MOLECULE
tmp/1ibjA00.pdb
 132 122 0 0 0
SMALL
GASTEIGER

@<TRIPOS>ATOM
      1  N         36.7240   70.0370   29.0700 N.3    72  SER72      -0.1202
      2  CA        36.7200   71.1230   28.0790 C.3    72  SER72       0.2020
      3  C         35.6400   72.1380   28.3810 C.2    72  SER72       0.2619
      4  O         34.8040   71.8880   29.2440 O.2    72  SER72      -0.2717
      5  CB        36.4540   70.5900   26.6900 C.3    72  SER72       0.2103
      6  OG        35.0760   70.2320   26.5810 O.3    72  SER72      -0.2182
      7  N         35.6590   73.2760   27.6700 N.am   73  GLY73      -0.1942
      8  CA        34.6470   74.3120   27.8550 C.3    73  GLY73       0.2014
      9  C         33.2300   73.7270   27.7350 C.2    73  GLY73       0.2638
     10  O         32.4200   73.8510   28.6750 O.2    73  GLY73      -0.2714
     11  N         32.9430   73.0710   26.5990 N.am   74  MET74      -0.1976
     12  CA        31.6290   72.4270   26.3590 C.3    74  MET74       0.1605
     13  C         31.2070   71.4260   27.4310 C.2    74  MET74       0.2287
     14  O         30.0280   71.3220   27.7410 O.2    74  MET74      -0.2864
     15  CB        31.6030   71.6930   25.0240 C.3    74  MET74       0.0413
     16  CG        31.6070   72.5960   23.7870 C.3    74  MET74       0.0598
     17  SD        30.3370   73.9480   23.8410 S.3    74  MET74      -0.1393
     18  CE        28.8230   73.0600   24.4110 C.3    74  MET74       0.0692
     19  N         29.7560   73.4490   30.1380 N.3    77  LEU77      -0.1245
     20  CA        28.4520   74.0200   29.7950 C.3    77  LEU77       0.1561
     21  C         27.4350   72.8830   29.8200 C.2    77  LEU77       0.2260
     22  O         26.2840   73.0520   30.2140 O.2    77  LEU77      -0.2867
     23  CB        28.5050   74.7340   28.4170 C.3    77  LEU77       0.0270
     24  CG        29.3870   75.9980   28.4670 C.3    77  LEU77       0.0019
     25  CD1       29.4300   76.6490   27.0790 C.3    77  LEU77       0.0001
     26  CD2       28.8540   77.0290   29.4990 C.3    77  LEU77       0.0001
     27  N         27.4370   81.5570   21.8370 N.3    97  TYR97      -0.1241
     28  CA        28.4370   80.7570   21.0850 C.3    97  TYR97       0.1605
     29  C         27.9660   79.4350   20.3920 C.2    97  TYR97       0.2264
     30  O         27.1370   78.6720   20.9310 O.2    97  TYR97      -0.2867
     31  CB        29.6250   80.4700   22.0460 C.3    97  TYR97       0.0534
     32  CG        30.5370   79.3020   21.6860 C.ar   97  TYR97      -0.0201
     33  CD1       31.5740   79.4530   20.7660 C.ar   97  TYR97      -0.0009
     34  CD2       30.3310   78.0330   22.2380 C.ar   97  TYR97      -0.0009
     35  CE1       32.3840   78.3650   20.3970 C.ar   97  TYR97       0.0417
     36  CE2       31.1300   76.9440   21.8730 C.ar   97  TYR97       0.0417
     37  CZ        32.1520   77.1220   20.9510 C.ar   97  TYR97       0.1957
     38  OH        32.9250   76.0580   20.5680 O.3    97  TYR97      -0.2866
     39  N         26.1270   86.0520   28.0360 N.3   140  GLU140     -0.1245
     40  CA        27.4240   86.0880   27.4000 C.3   140  GLU140      0.1567
     41  C         27.6010   87.5260   26.9010 C.2   140  GLU140      0.2260
     42  O         26.9030   87.9730   25.9780 O.2   140  GLU140     -0.2867
     43  CB        27.4680   85.1190   26.2340 C.3   140  GLU140      0.0388
     44  CG        28.8170   85.0580   25.5910 C.3   140  GLU140      0.1160
     45  CD        28.9860   83.8560   24.6600 C.2   140  GLU140      0.3649
     46  OE1       28.2820   82.8300   24.8300 O.co2 140  GLU140     -0.2457
     47  OE2       29.8430   83.9170   23.7620 O.co2 140  GLU140     -0.2457
     48  N         29.7440   87.4500   20.6130 N.3   144  ASN144     -0.1240
     49  CA        30.6970   87.2090   19.5340 C.3   144  ASN144      0.1653
     50  C         29.9210   87.1900   18.2050 C.2   144  ASN144      0.2266
     51  O         28.8580   86.5620   18.0960 O.2   144  ASN144     -0.2867
     52  CB        31.4360   85.8740   19.7290 C.3   144  ASN144      0.1155
     53  CG        32.8530   85.8960   19.1390 C.2   144  ASN144      0.2627
     54  OD1       33.8510   85.9940   19.8730 O.2   144  ASN144     -0.2716
     55  ND2       32.9440   85.8240   17.8080 N.am  144  ASN144     -0.0877
     56  N         28.9830   82.9020   30.8020 N.3   169  ASP169     -0.1239
     57  CA        30.1220   82.2840   30.1440 C.3   169  ASP169      0.1674
     58  C         31.0730   83.4440   29.9480 C.2   169  ASP169      0.2266
     59  O         30.9350   84.2280   29.0070 O.2   169  ASP169     -0.2867
     60  CB        29.7570   81.7430   28.7950 C.3   169  ASP169      0.1410
     61  CG        30.9810   81.2850   28.0260 C.2   169  ASP169      0.3668
     62  OD1       32.1190   81.7820   28.2810 O.co2 169  ASP169     -0.2456
     63  OD2       30.7990   80.4200   27.1560 O.co2 169  ASP169     -0.2456
     64  N         34.2520   83.3310   29.1900 N.3   171  SER171     -0.1202
     65  CA        35.4190   82.9550   28.3780 C.3   171  SER171      0.2020
     66  C         36.2070   84.1140   27.7590 C.2   171  SER171      0.2618
     67  O         37.4570   84.1480   27.8700 O.2   171  SER171     -0.2717
     68  CB        34.9960   81.9900   27.2490 C.3   171  SER171      0.2103
     69  OG        34.3430   80.8350   27.7830 O.3   171  SER171     -0.2182
     70  N         35.5070   85.0650   27.1250 N.am  172  ILE172     -0.1979
     71  CA        36.2110   86.1590   26.4590 C.3   172  ILE172      0.1595
     72  C         36.7900   87.2140   27.3410 C.2   172  ILE172      0.2287
     73  O         37.6230   87.9940   26.8660 O.2   172  ILE172     -0.2864
     74  CB        35.3620   86.8830   25.4190 C.3   172  ILE172      0.0276
     75  CG1       36.2830   87.7200   24.5340 C.3   172  ILE172      0.0022
     76  CG2       34.3540   87.8210   26.0910 C.3   172  ILE172      0.0022
     77  CD1       35.4950   88.5300   23.5480 C.3   172  ILE172      0.0001
     78  N         31.3440   80.5190   33.8490 N.3   189  MET189     -0.1245
     79  CA        32.0470   79.4740   33.1320 C.3   189  MET189      0.1570
     80  C         33.0550   80.0740   32.1750 C.2   189  MET189      0.2261
     81  O         32.8170   81.1480   31.6280 O.2   189  MET189     -0.2867
     82  CB        31.0650   78.5880   32.4070 C.3   189  MET189      0.0387
     83  CG        31.7390   77.6520   31.4960 C.3   189  MET189      0.0595
     84  SD        31.9950   78.4680   29.9350 S.3   189  MET189     -0.1393
     85  CE        33.1310   77.4370   29.0060 C.3   189  MET189      0.0692
     86  N         36.1150   78.9140   29.0070 N.3   191  SER191     -0.1217
     87  CA        36.6580   77.8490   28.1750 C.3   191  SER191      0.1889
     88  C         38.1250   78.0940   28.5090 C.2   191  SER191      0.2288
     89  O         38.7240   79.0160   27.9650 O.2   191  SER191     -0.2866
     90  CB        36.3840   78.1380   26.7120 C.3   191  SER191      0.2089
     91  OG        37.2170   77.3470   25.8910 O.3   191  SER191     -0.2183
     92  N         40.5010   76.7700   27.6690 N.3   193  THR193     -0.1203
     93  CA        41.2270   76.4750   26.4430 C.3   193  THR193      0.1994
     94  C         41.7330   77.8090   25.8670 C.2   193  THR193      0.2617
     95  O         42.6900   77.8620   25.0960 O.2   193  THR193     -0.2717
     96  CB        40.2770   75.9160   25.3640 C.3   193  THR193      0.1784
     97  OG1       39.6120   74.7260   25.8290 O.3   193  THR193     -0.2211
     98  CG2       41.0390   75.6470   24.0930 C.3   193  THR193      0.0376
     99  N         41.0590   78.8910   26.2400 N.am  194  LYS194     -0.1979
    100  CA        41.3460   80.2250   25.7200 C.3   194  LYS194      0.1596
    101  C         42.3950   81.0570   26.4880 C.2   194  LYS194      0.2287
    102  O         43.5740   80.7860   26.3860 O.2   194  LYS194     -0.2864
    103  CB        40.0060   80.9710   25.5850 C.3   194  LYS194      0.0298
    104  CG        38.8510   80.1070   24.9190 C.3   194  LYS194      0.0038
    105  CD        38.8890   80.0780   23.3740 C.3   194  LYS194      0.0206
    106  CE        38.1320   78.8600   22.7800 C.3   194  LYS194      0.1093
    107  NZ        36.7150   78.7910   23.2940 N.3   194  LYS194     -0.1314
    108  N         42.8930   71.7130   26.2260 N.3   203  MET203     -0.1245
    109  CA        41.4310   71.8390   26.1270 C.3   203  MET203      0.1570
    110  C         41.0240   71.7930   27.5900 C.2   203  MET203      0.2261
    111  O         41.4870   70.9050   28.3160 O.2   203  MET203     -0.2867
    112  CB        40.9060   70.5810   25.4340 C.3   203  MET203      0.0387
    113  CG        39.8650   70.6990   24.3820 C.3   203  MET203      0.0595
    114  SD        40.3000   71.6750   22.9290 S.3   203  MET203     -0.1393
    115  CE        38.7900   72.5840   22.9000 C.3   203  MET203      0.0692
    116  N         38.9610   80.1820   17.6850 N.3   321  SER321     -0.1202
    117  CA        39.2290   80.6730   19.0390 C.3   321  SER321      0.2020
    118  C         40.1220   81.8910   19.1820 C.2   321  SER321      0.2618
    119  O         40.5070   82.5620   18.2090 O.2   321  SER321     -0.2717
    120  CB        39.6880   79.5730   20.0210 C.3   321  SER321      0.2103
    121  OG        40.9810   79.0860   19.7550 O.3   321  SER321     -0.2182
    122  N         40.4490   82.1510   20.4350 N.am  322  PHE322     -0.1975
    123  CA        41.1510   83.3510   20.7980 C.3   322  PHE322      0.1639
    124  C         41.8500   83.1360   22.1150 C.2   322  PHE322      0.2290
    125  O         41.8280   82.0470   22.6610 O.2   322  PHE322     -0.2864
    126  CB        40.0830   84.4710   20.9660 C.3   322  PHE322      0.0560
    127  CG        38.9970   84.1250   21.9770 C.ar  322  PHE322     -0.0200
    128  CD1       39.1870   84.3540   23.3380 C.ar  322  PHE322     -0.0042
    129  CD2       37.8310   83.4650   21.5690 C.ar  322  PHE322     -0.0042
    130  CE1       38.2380   83.9220   24.2760 C.ar  322  PHE322     -0.0003
    131  CE2       36.8860   83.0330   22.4750 C.ar  322  PHE322     -0.0003
    132  CZ        37.0880   83.2610   23.8500 C.ar  322  PHE322     -0.0000
@<TRIPOS>BOND
     1   116   117    1
     2    55    53   am
     3    51    50    2
     4    50    49    1
     5   119   118    2
     6   117   118    1
     7   117   120    1
     8    53    52    1
     9    53    54    2
    10   118   122   am
    11    49    52    1
    12    49    48    1
    13   121   120    1
    14    29    30    2
    15    29    28    1
    16    35    33   ar
    17    35    37   ar
    18   122   123    1
    19    38    37    1
    20    33    32   ar
    21   123   126    1
    22   123   124    1
    23    37    36   ar
    24   126   127    1
    25    28    27    1
    26    28    31    1
    27   129   127   ar
    28   129   131   ar
    29    32    31    1
    30    32    34   ar
    31    36    34   ar
    32   127   128   ar
    33   124   125    2
    34   131   132   ar
    35   106   107    1
    36   106   105    1
    37   115   114    1
    38   114   113    1
    39   128   130   ar
    40   105   104    1
    41    77    75    1
    42    47    45   ar
    43    16    17    1
    44    16    15    1
    45    17    18    1
    46   132   130   ar
    47    98    96    1
    48   113   112    1
    49    75    74    1
    50    45    46   ar
    51    45    44    1
    52   104   103    1
    53    15    12    1
    54    95    94    2
    55    96    97    1
    56    96    93    1
    57    74    76    1
    58    74    71    1
    59   112   109    1
    60   103   100    1
    61    44    43    1
    62   100    99    1
    63   100   101    1
    64    94    99   am
    65    94    93    1
    66    91    90    1
    67    42    41    2
    68   109   108    1
    69   109   110    1
    70    43    40    1
    71    12    11    1
    72    12    13    1
    73   102   101    2
    74    93    92    1
    75    71    70    1
    76    71    72    1
    77     6     5    1
    78    11     9   am
    79     5     2    1
    80    90    87    1
    81    73    72    2
    82    41    40    1
    83    25    24    1
    84    70    66   am
    85    63    61   ar
    86    68    69    1
    87    68    65    1
    88    40    39    1
    89    13    14    2
    90   110   111    2
    91     7     8    1
    92     7     3   am
    93     9     8    1
    94     9    10    2
    95    66    67    2
    96    66    65    1
    97    89    88    2
    98    61    62   ar
    99    61    60    1
   100     2     3    1
   101     2     1    1
   102    87    88    1
   103    87    86    1
   104    65    64    1
   105     3     4    2
   106    23    24    1
   107    23    20    1
   108    24    26    1
   109    60    57    1
   110    85    84    1
   111    59    58    2
   112    20    21    1
   113    20    19    1
   114    21    22    2
   115    84    83    1
   116    58    57    1
   117    57    56    1
   118    83    82    1
   119    81    80    2
   120    80    79    1
   121    82    79    1
   122    79    78    1
