@<TRIPOS>MOLECULE
tmp/1ibsB00.pdb
 99 94 0 0 0
SMALL
GASTEIGER

@<TRIPOS>ATOM
      1  N         16.6310   47.1020   54.7500 N.3    94  TYR94      -0.1241
      2  CA        16.6470   47.9270   53.5360 C.3    94  TYR94       0.1605
      3  C         17.5320   49.1640   53.5890 C.2    94  TYR94       0.2264
      4  O         17.5530   49.9640   52.6640 O.2    94  TYR94      -0.2867
      5  CB        15.2450   48.3070   53.0820 C.3    94  TYR94       0.0534
      6  CG        14.4430   47.2020   52.3990 C.ar   94  TYR94      -0.0201
      7  CD1       14.8510   46.6570   51.1870 C.ar   94  TYR94      -0.0009
      8  CD2       13.2440   46.7520   52.9430 C.ar   94  TYR94      -0.0009
      9  CE1       14.0880   45.7000   50.5430 C.ar   94  TYR94       0.0417
     10  CE2       12.4770   45.8030   52.3080 C.ar   94  TYR94       0.0417
     11  CZ        12.8990   45.2730   51.1060 C.ar   94  TYR94       0.1957
     12  OH        12.1380   44.3100   50.4740 O.3    94  TYR94      -0.2866
     13  N         20.4430   49.3000   52.9560 N.3    96  ARG96      -0.1231
     14  CA        21.4950   49.1960   51.9310 C.3    96  ARG96       0.1694
     15  C         21.0790   49.7860   50.5980 C.2    96  ARG96       0.2592
     16  O         21.9260   50.2180   49.7890 O.2    96  ARG96      -0.2718
     17  CB        22.0070   47.7700   51.7880 C.3    96  ARG96       0.0321
     18  CG        23.2850   47.5880   52.5700 C.3    96  ARG96       0.0489
     19  CD        23.8170   46.1980   52.4970 C.3    96  ARG96       0.2205
     20  NE        22.9080   45.2830   53.1780 N.pl3  96  ARG96      -0.0865
     21  CZ        22.8660   43.9590   52.9860 C.cat  96  ARG96       0.5346
     22  NH1       23.6960   43.3550   52.1190 N.pl3  96  ARG96       0.1354
     23  NH2       21.9670   43.2350   53.6410 N.pl3  96  ARG96       0.1354
     24  N         19.7570   49.8560   50.4230 N.am   97  GLN97      -0.1966
     25  CA        19.1270   50.4460   49.2430 C.3    97  GLN97       0.1733
     26  C         18.8690   51.9150   49.6330 C.2    97  GLN97       0.2616
     27  O         17.7040   52.3440   49.7960 O.2    97  GLN97      -0.2715
     28  CB        17.8100   49.7140   48.9260 C.3    97  GLN97       0.0408
     29  CG        17.3880   49.8080   47.4820 C.3    97  GLN97       0.0908
     30  CD        18.5600   49.5380   46.5440 C.2    97  GLN97       0.2608
     31  OE1       19.3900   48.6420   46.8060 O.2    97  GLN97      -0.2717
     32  NE2       18.6650   50.3270   45.4620 N.am   97  GLN97      -0.0878
     33  N         19.9760   52.6550   49.8150 N.am   98  ASP98      -0.1957
     34  CA        19.9320   54.0530   50.2370 C.3    98  ASP98       0.1840
     35  C         20.1870   55.1340   49.1780 C.2    98  ASP98       0.2622
     36  O         20.3640   56.2990   49.5220 O.2    98  ASP98      -0.2715
     37  CB        20.8160   54.2730   51.4850 C.3    98  ASP98       0.1450
     38  CG        22.3000   54.0140   51.2280 C.2    98  ASP98       0.3671
     39  OD1       23.0850   53.8630   52.1910 O.co2  98  ASP98      -0.2456
     40  OD2       22.7040   53.9800   50.0580 O.co2  98  ASP98      -0.2456
     41  N         20.2430   54.7430   47.9050 N.am   99  ARG99      -0.1963
     42  CA        20.4210   55.6620   46.7480 C.3    99  ARG99       0.1729
     43  C         20.2500   54.8590   45.4490 C.2    99  ARG99       0.2616
     44  O         19.9950   53.6480   45.4930 O.2    99  ARG99      -0.2715
     45  CB        21.8050   56.3460   46.7200 C.3    99  ARG99       0.0348
     46  CG        23.0020   55.4180   46.4600 C.3    99  ARG99       0.0492
     47  CD        23.7340   55.1920   47.7910 C.3    99  ARG99       0.2205
     48  NE        24.5280   53.9670   47.8760 N.pl3  99  ARG99      -0.0865
     49  CZ        25.7050   53.8150   47.2830 C.cat  99  ARG99       0.5346
     50  NH1       26.1990   54.8150   46.5540 N.pl3  99  ARG99       0.1354
     51  NH2       26.4250   52.6970   47.4650 N.pl3  99  ARG99       0.1354
     52  N         20.3440   55.5310   44.3090 N.am  100  LYS100     -0.1977
     53  CA        20.2400   54.8370   43.0460 C.3   100  LYS100      0.1596
     54  C         21.6920   54.5540   42.6450 C.2   100  LYS100      0.2287
     55  O         22.0790   53.3540   42.6310 O.2   100  LYS100     -0.2864
     56  CB        19.5260   55.7130   42.0080 C.3   100  LYS100      0.0298
     57  CG        18.0760   56.0160   42.3660 C.3   100  LYS100      0.0038
     58  CD        17.4380   57.0320   41.4280 C.3   100  LYS100      0.0206
     59  CE        16.9030   56.4010   40.1180 C.3   100  LYS100      0.1093
     60  NZ        16.3160   57.4210   39.1610 N.3   100  LYS100     -0.1314
     61  N         16.6500   52.5000   39.9700 N.3   103  GLU103     -0.1245
     62  CA        16.4610   51.7020   41.1880 C.3   103  GLU103      0.1567
     63  C         15.6780   52.5200   42.2130 C.2   103  GLU103      0.2260
     64  O         15.6020   53.7440   42.1120 O.2   103  GLU103     -0.2867
     65  CB        17.7960   51.3320   41.8450 C.3   103  GLU103      0.0388
     66  CG        18.6710   50.4410   41.0380 C.3   103  GLU103      0.1160
     67  CD        19.7310   49.7800   41.8950 C.2   103  GLU103      0.3649
     68  OE1       20.4190   50.4930   42.6770 O.co2 103  GLU103     -0.2457
     69  OE2       19.8510   48.5390   41.7800 O.co2 103  GLU103     -0.2457
     70  N         22.9290   51.7090   58.3710 N.3   128  HIS128     -0.1241
     71  CA        24.0120   51.5230   57.4020 C.3   128  HIS128      0.1621
     72  C         24.5740   52.8580   56.9920 C.2   128  HIS128      0.2264
     73  O         25.7410   52.9660   56.6720 O.2   128  HIS128     -0.2867
     74  CB        23.5130   50.8040   56.1580 C.3   128  HIS128      0.0745
     75  CG        24.5430   50.6520   55.0810 C.ar  128  HIS128      0.0817
     76  ND1       25.7400   50.0020   55.2790 N.ar  128  HIS128     -0.2268
     77  CD2       24.5130   50.9870   53.7700 C.ar  128  HIS128      0.1154
     78  CE1       26.4020   49.9290   54.1370 C.ar  128  HIS128      0.1986
     79  NE2       25.6790   50.5220   53.2040 N.ar  128  HIS128     -0.2212
     80  N         36.0640   47.2460   53.6480 N.3   167  ASP167     -0.1239
     81  CA        35.8020   47.9530   52.4070 C.3   167  ASP167      0.1674
     82  C         35.9160   49.4700   52.4590 C.2   167  ASP167      0.2266
     83  O         36.0680   50.0680   53.5200 O.2   167  ASP167     -0.2867
     84  CB        34.4260   47.5610   51.8670 C.3   167  ASP167      0.1410
     85  CG        33.2830   47.9710   52.7810 C.2   167  ASP167      0.3668
     86  OD1       33.4500   48.7990   53.7020 O.co2 167  ASP167     -0.2456
     87  OD2       32.1790   47.4570   52.5520 O.co2 167  ASP167     -0.2456
     88  N         33.7530   51.7650   52.4130 N.3   169  GLY169     -0.1225
     89  CA        32.7760   52.5430   53.1720 C.3   169  GLY169      0.1811
     90  C         32.9400   52.4230   54.6760 C.2   169  GLY169      0.2280
     91  O         32.4940   53.2860   55.4480 O.2   169  GLY169     -0.2866
     92  N         26.4770   39.9630   56.3420 N.3   211  ASP211     -0.1239
     93  CA        25.3820   39.3280   55.6550 C.3   211  ASP211      0.1674
     94  C         25.7490   37.9240   55.2210 C.2   211  ASP211      0.2266
     95  O         25.6060   36.9890   55.9930 O.2   211  ASP211     -0.2867
     96  CB        24.9660   40.2170   54.4720 C.3   211  ASP211      0.1410
     97  CG        23.7270   39.7190   53.7690 C.2   211  ASP211      0.3668
     98  OD1       23.0370   38.8310   54.3300 O.co2 211  ASP211     -0.2456
     99  OD2       23.4670   40.2290   52.6490 O.co2 211  ASP211     -0.2456
@<TRIPOS>BOND
     1    60    59    1
     2    61    62    1
     3    59    58    1
     4    66    65    1
     5    66    67    1
     6    62    65    1
     7    62    63    1
     8    58    57    1
     9    69    67   ar
    10    67    68   ar
    11    56    57    1
    12    56    53    1
    13    64    63    2
    14    55    54    2
    15    54    53    1
    16    53    52    1
    17    52    43   am
    18    43    44    2
    19    43    42    1
    20    32    30   am
    21    46    45    1
    22    46    47    1
    23    30    31    2
    24    30    29    1
    25    50    49    1
    26    45    42    1
    27    42    41    1
    28    49    51    1
    29    49    48    2
    30    29    28    1
    31    47    48    1
    32    41    35   am
    33    28    25    1
    34    35    36    2
    35    35    34    1
    36    25    26    1
    37    25    24    1
    38    26    27    2
    39    26    33   am
    40    16    15    2
    41    33    34    1
    42    40    38   ar
    43    34    37    1
    44    24    15   am
    45    12    11    1
    46     9    11   ar
    47     9     7   ar
    48    15    14    1
    49    11    10   ar
    50     7     6   ar
    51    38    37    1
    52    38    39   ar
    53    17    14    1
    54    17    18    1
    55    84    81    1
    56    84    85    1
    57    14    13    1
    58    22    21    1
    59    10     8   ar
    60     6     8   ar
    61     6     5    1
    62    81    82    1
    63    81    80    1
    64    88    89    1
    65    82    83    2
    66    19    18    1
    67    19    20    1
    68    87    85   ar
    69    99    97   ar
    70     4     3    2
    71    85    86   ar
    72    21    20    2
    73    21    23    1
    74     5     2    1
    75    89    90    1
    76    79    77   ar
    77    79    78   ar
    78     2     3    1
    79     2     1    1
    80    97    98   ar
    81    97    96    1
    82    77    75   ar
    83    78    76   ar
    84    96    93    1
    85    90    91    2
    86    75    76   ar
    87    75    74    1
    88    94    93    1
    89    94    95    2
    90    93    92    1
    91    74    71    1
    92    73    72    2
    93    72    71    1
    94    71    70    1
