@<TRIPOS>MOLECULE
tmp/1ic1A03.pdb
 95 98 0 0 0
SMALL
GASTEIGER

@<TRIPOS>ATOM
      1  N         11.5530   28.3830    4.9460 N.3    83  TYR83      -0.1227
      2  CA        12.1320   27.1230    4.4840 C.3    83  TYR83       0.1736
      3  C         13.4550   27.2240    3.7320 C.2    83  TYR83       0.2595
      4  O         13.6810   28.1820    2.9790 O.2    83  TYR83      -0.2718
      5  CB        11.1690   26.3860    3.5790 C.3    83  TYR83       0.0548
      6  CG        10.9200   26.9880    2.2060 C.ar   83  TYR83      -0.0200
      7  CD1        9.8740   27.9110    2.0050 C.ar   83  TYR83      -0.0009
      8  CD2       11.5940   26.5210    1.0940 C.ar   83  TYR83      -0.0009
      9  CE1        9.4920   28.3410    0.7320 C.ar   83  TYR83       0.0417
     10  CE2       11.2180   26.9410   -0.1930 C.ar   83  TYR83       0.0417
     11  CZ        10.1570   27.8500   -0.3620 C.ar   83  TYR83       0.1957
     12  OH         9.7170   28.2180   -1.6240 O.3    83  TYR83      -0.2866
     13  N         14.2850   26.1870    3.9080 N.am   84  TRP84      -0.1962
     14  CA        15.5930   26.0260    3.2500 C.3    84  TRP84       0.1771
     15  C         16.2700   24.6560    3.4340 C.2    84  TRP84       0.2620
     16  O         16.4860   24.1010    4.5480 O.2    84  TRP84      -0.2715
     17  CB        16.5650   27.1640    3.5620 C.3    84  TRP84       0.0590
     18  CG        16.8450   27.3200    5.0190 C.ar   84  TRP84       0.0006
     19  CD1       15.9700   27.7590    6.0110 C.ar   84  TRP84       0.0946
     20  CD2       18.0740   26.9850    5.6790 C.ar   84  TRP84       0.0152
     21  NE1       16.6070   27.6990    7.2430 N.ar   84  TRP84      -0.2442
     22  CE2       17.8900   27.2300    7.0640 C.ar   84  TRP84       0.0810
     23  CE3       19.3020   26.5000    5.2330 C.ar   84  TRP84       0.0012
     24  CZ2       18.8990   27.0030    7.9970 C.ar   84  TRP84       0.0191
     25  CZ3       20.2980   26.2800    6.1620 C.ar   84  TRP84       0.0001
     26  CH2       20.0960   26.5310    7.5290 C.ar   84  TRP84       0.0015
     27  N         16.5680   24.1230    2.2680 N.am   85  THR85      -0.1937
     28  CA        17.2050   22.8540    2.0880 C.3    85  THR85       0.2013
     29  C         18.6450   22.8950    2.7010 C.2    85  THR85       0.2484
     30  O         19.4630   23.7570    2.3560 O.2    85  THR85      -0.2729
     31  CB        17.1530   22.5750    0.5770 C.3    85  THR85       0.1807
     32  OG1       17.3680   21.1910    0.3320 O.3    85  THR85      -0.2208
     33  CG2       18.1600   23.3940   -0.1740 C.3    85  THR85       0.0379
     34  N         18.9860   21.9150    3.5630 N.am   86  PRO86      -0.2715
     35  CA        20.2960   21.8240    4.2370 C.3    86  PRO86       0.1536
     36  C         21.5410   22.3150    3.4650 C.2    86  PRO86       0.2598
     37  O         21.7010   22.0830    2.2550 O.2    86  PRO86      -0.2715
     38  CB        20.3660   20.3480    4.6650 C.3    86  PRO86       0.0310
     39  CG        19.4470   19.6490    3.6170 C.3    86  PRO86       0.0237
     40  CD        18.3030   20.6050    3.5960 C.3    86  PRO86       0.0939
     41  N         22.3990   23.0480    4.1680 N.am   87  GLU87      -0.1964
     42  CA        23.6060   23.6010    3.5650 C.3    87  GLU87       0.1733
     43  C         24.5770   22.4920    3.1020 C.2    87  GLU87       0.2616
     44  O         25.2490   22.6230    2.0830 O.2    87  GLU87      -0.2715
     45  CB        24.2890   24.5300    4.5700 C.3    87  GLU87       0.0429
     46  CG        24.8620   25.8060    3.9940 C.3    87  GLU87       0.1163
     47  CD        23.8690   26.9660    3.9360 C.2    87  GLU87       0.3649
     48  OE1       23.3340   27.3410    5.0240 O.co2  87  GLU87      -0.2457
     49  OE2       23.6900   27.5410    2.8140 O.co2  87  GLU87      -0.2457
     50  N         24.6360   21.4030    3.8620 N.am   88  ARG88      -0.1963
     51  CA        25.4990   20.2720    3.5510 C.3    88  ARG88       0.1729
     52  C         24.9890   18.9410    4.1140 C.2    88  ARG88       0.2616
     53  O         24.6150   18.8340    5.3050 O.2    88  ARG88      -0.2715
     54  CB        26.9110   20.5130    4.0730 C.3    88  ARG88       0.0348
     55  CG        27.8290   19.3300    3.7900 C.3    88  ARG88       0.0492
     56  CD        29.1160   19.3550    4.5820 C.3    88  ARG88       0.2205
     57  NE        29.9450   18.2140    4.2150 N.pl3  88  ARG88      -0.0865
     58  CZ        30.2390   17.1990    5.0350 C.cat  88  ARG88       0.5346
     59  NH1       29.7790   17.1890    6.2810 N.pl3  88  ARG88       0.1354
     60  NH2       30.9480   16.1540    4.6020 N.pl3  88  ARG88       0.1354
     61  N         24.9280   17.9310    3.2480 N.am   89  VAL89      -0.1977
     62  CA        24.5180   16.5870    3.6990 C.3    89  VAL89       0.1596
     63  C         25.5480   15.4920    3.2390 C.2    89  VAL89       0.2287
     64  O         25.6450   15.1270    2.0490 O.2    89  VAL89      -0.2864
     65  CB        22.9610   16.2570    3.4070 C.3    89  VAL89       0.0276
     66  CG1       22.2270   17.4910    2.8690 C.3    89  VAL89       0.0022
     67  CG2       22.7540   15.0070    2.5070 C.3    89  VAL89       0.0022
     68  N         11.8680   18.5820   -1.0910 N.3   173  PHE173     -0.1227
     69  CA        13.2030   18.8850   -1.5550 C.3   173  PHE173      0.1736
     70  C         14.2220   17.8850   -1.0270 C.2   173  PHE173      0.2595
     71  O         14.3330   17.6890    0.1870 O.2   173  PHE173     -0.2718
     72  CB        13.5760   20.3170   -1.1440 C.3   173  PHE173      0.0547
     73  CG        12.5990   21.3360   -1.5960 C.ar  173  PHE173     -0.0202
     74  CD1       12.6440   21.8310   -2.9020 C.ar  173  PHE173     -0.0042
     75  CD2       11.6120   21.7970   -0.7320 C.ar  173  PHE173     -0.0042
     76  CE1       11.7210   22.7870   -3.3480 C.ar  173  PHE173     -0.0003
     77  CE2       10.6770   22.7560   -1.1680 C.ar  173  PHE173     -0.0003
     78  CZ        10.7380   23.2440   -2.4800 C.ar  173  PHE173     -0.0000
     79  N         14.9530   17.2300   -1.9150 N.am  174  GLU174     -0.1965
     80  CA        15.9120   16.2820   -1.4090 C.3   174  GLU174      0.1733
     81  C         17.3400   16.6120   -1.7640 C.2   174  GLU174      0.2616
     82  O         17.5950   17.4180   -2.6690 O.2   174  GLU174     -0.2715
     83  CB        15.5310   14.8380   -1.7600 C.3   174  GLU174      0.0429
     84  CG        14.7250   14.6800   -3.0380 C.3   174  GLU174      0.1163
     85  CD        14.1500   13.2610   -3.1890 C.2   174  GLU174      0.3649
     86  OE1       13.2200   12.8910   -2.4410 O.co2 174  GLU174     -0.2457
     87  OE2       14.6280   12.4950   -4.0520 O.co2 174  GLU174     -0.2457
     88  N         18.2560   16.0310   -0.9870 N.am  175  ASN175     -0.1972
     89  CA        19.6670   16.2360   -1.1730 C.3   175  ASN175      0.1688
     90  C         20.3880   14.9740   -0.8640 C.2   175  ASN175      0.2292
     91  O         20.2970   14.4570    0.2450 O.2   175  ASN175     -0.2864
     92  CB        20.1790   17.2770   -0.2050 C.3   175  ASN175      0.1181
     93  CG        19.6220   18.6310   -0.4670 C.2   175  ASN175      0.2629
     94  OD1       18.9820   19.2000    0.4170 O.2   175  ASN175     -0.2716
     95  ND2       19.8960   19.1520   -1.6660 N.am  175  ASN175     -0.0877
@<TRIPOS>BOND
     1    87    85   ar
     2    76    74   ar
     3    76    78   ar
     4    85    84    1
     5    85    86   ar
     6    84    83    1
     7    74    73   ar
     8    82    81    2
     9    78    77   ar
    10    79    80    1
    11    79    70   am
    12    81    80    1
    13    81    88   am
    14    83    80    1
    15    95    93   am
    16    12    11    1
    17    73    72    1
    18    73    75   ar
    19    69    72    1
    20    69    68    1
    21    69    70    1
    22    89    88    1
    23    89    90    1
    24    89    92    1
    25    77    75   ar
    26    70    71    2
    27    90    91    2
    28    93    92    1
    29    93    94    2
    30    11    10   ar
    31    11     9   ar
    32    10     8   ar
    33    33    31    1
    34    32    31    1
    35    31    28    1
    36     9     7   ar
    37     8     6   ar
    38     7     6   ar
    39    64    63    2
    40    44    43    2
    41    28    27    1
    42    28    29    1
    43     6     5    1
    44    37    36    2
    45    27    15   am
    46    30    29    2
    47    67    65    1
    48    29    34   am
    49    49    47   ar
    50    66    65    1
    51     4     3    2
    52    43    42    1
    53    43    50   am
    54    63    62    1
    55    61    62    1
    56    61    52   am
    57    14    15    1
    58    14    17    1
    59    14    13    1
    60    65    62    1
    61    15    16    2
    62    36    41   am
    63    36    35    1
    64    51    50    1
    65    51    54    1
    66    51    52    1
    67    17    18    1
    68    34    40    1
    69    34    35    1
    70    42    41    1
    71    42    45    1
    72     5     2    1
    73    40    39    1
    74    39    38    1
    75     3    13   am
    76     3     2    1
    77    55    54    1
    78    55    56    1
    79    47    46    1
    80    47    48   ar
    81    46    45    1
    82    52    53    2
    83    57    56    1
    84    57    58    2
    85    35    38    1
    86     2     1    1
    87    60    58    1
    88    18    20   ar
    89    18    19   ar
    90    58    59    1
    91    23    20   ar
    92    23    25   ar
    93    20    22   ar
    94    19    21   ar
    95    25    26   ar
    96    22    21   ar
    97    22    24   ar
    98    26    24   ar
