@<TRIPOS>MOLECULE
tmp/1iceC00.pdb
 87 87 0 0 0
SMALL
GASTEIGER

@<TRIPOS>ATOM
      1  N         38.6650   57.4910    9.0750 N.3    22  VAL22      -0.1231
      2  CA        37.9830   58.5590    8.3810 C.3    22  VAL22       0.1692
      3  C         38.9100   59.6620    7.9960 C.2    22  VAL22       0.2593
      4  O         40.0320   59.7160    8.4680 O.2    22  VAL22      -0.2718
      5  CB        36.8470   59.1490    9.2560 C.3    22  VAL22       0.0266
      6  CG1       35.8160   58.0580    9.5000 C.3    22  VAL22       0.0020
      7  CG2       37.3580   59.6500   10.5990 C.3    22  VAL22       0.0020
      8  N         38.4040   60.5450    7.1280 N.am   23  SER23      -0.1938
      9  CA        39.0430   61.8140    6.8350 C.3    23  SER23       0.2055
     10  C         38.0050   62.8880    6.8730 C.2    23  SER23       0.2643
     11  O         36.8250   62.6050    6.7640 O.2    23  SER23      -0.2714
     12  CB        39.6970   61.8090    5.4530 C.3    23  SER23       0.2130
     13  OG        39.1020   60.9070    4.5380 O.3    23  SER23      -0.2179
     14  N         38.3940   64.1340    7.0170 N.am   24  TRP24      -0.1959
     15  CA        37.4860   65.1850    7.4030 C.3    24  TRP24       0.1771
     16  C         37.2220   66.1940    6.3230 C.2    24  TRP24       0.2620
     17  O         38.1520   66.6670    5.6570 O.2    24  TRP24      -0.2715
     18  CB        38.0680   65.8630    8.6490 C.3    24  TRP24       0.0590
     19  CG        38.0470   64.8820    9.8050 C.ar   24  TRP24       0.0006
     20  CD1       39.0620   64.0220   10.1640 C.ar   24  TRP24       0.0946
     21  CD2       36.8190   64.6770   10.5740 C.ar   24  TRP24       0.0152
     22  NE1       38.5940   63.2420   11.1170 N.ar   24  TRP24      -0.2442
     23  CE2       37.3180   63.5370   11.4190 C.ar   24  TRP24       0.0810
     24  CE3       35.5170   65.1020   10.6670 C.ar   24  TRP24       0.0012
     25  CZ2       36.4620   62.9270   12.2910 C.ar   24  TRP24       0.0191
     26  CZ3       34.6930   64.4380   11.5590 C.ar   24  TRP24       0.0001
     27  CH2       35.1570   63.3880   12.3430 C.ar   24  TRP24       0.0015
     28  N         35.9200   66.4880    6.2170 N.am   25  ARG25      -0.1963
     29  CA        35.3930   67.3850    5.2050 C.3    25  ARG25       0.1729
     30  C         34.4950   68.4410    5.8130 C.2    25  ARG25       0.2616
     31  O         33.7680   68.2260    6.7770 O.2    25  ARG25      -0.2715
     32  CB        34.6190   66.5660    4.1770 C.3    25  ARG25       0.0348
     33  CG        34.5220   67.2740    2.8310 C.3    25  ARG25       0.0492
     34  CD        33.5790   66.5560    1.8860 C.3    25  ARG25       0.2205
     35  NE        32.2300   66.6740    2.3930 N.pl3  25  ARG25      -0.0865
     36  CZ        31.6070   65.6610    2.9860 C.cat  25  ARG25       0.5346
     37  NH1       32.1990   64.4520    3.1370 N.pl3  25  ARG25       0.1354
     38  NH2       30.3470   65.8460    3.4460 N.pl3  25  ARG25       0.1354
     39  N         34.4840   69.6570    5.3080 N.am   26  HIS26      -0.1960
     40  CA        33.6470   70.6930    5.8720 C.3    26  HIS26       0.1772
     41  C         32.7610   71.3640    4.8270 C.2    26  HIS26       0.2462
     42  O         33.2850   71.7540    3.8010 O.2    26  HIS26      -0.2730
     43  CB        34.5880   71.6910    6.5300 C.3    26  HIS26       0.0785
     44  CG        33.8920   72.8700    7.1430 C.ar   26  HIS26       0.0821
     45  ND1       33.8260   73.1860    8.4250 N.ar   26  HIS26      -0.2267
     46  CD2       33.3000   73.9000    6.4630 C.ar   26  HIS26       0.1154
     47  CE1       33.2570   74.3440    8.5700 C.ar   26  HIS26       0.1986
     48  NE2       32.9570   74.7690    7.3860 N.ar   26  HIS26      -0.2212
     49  N         31.4950   71.5550    4.9920 N.am   27  PRO27      -0.2727
     50  CA        30.5970   72.2770    4.0850 C.3    27  PRO27       0.1402
     51  C         31.2050   73.4960    3.4430 C.2    27  PRO27       0.2269
     52  O         31.7290   73.5280    2.3490 O.2    27  PRO27      -0.2865
     53  CB        29.3930   72.5950    4.9570 C.3    27  PRO27       0.0296
     54  CG        29.2880   71.3160    5.7400 C.3    27  PRO27       0.0237
     55  CD        30.7310   70.9700    6.0780 C.3    27  PRO27       0.0939
     56  N         33.9420   74.7320    3.4720 N.3    29  MET29      -0.1245
     57  CA        35.3740   74.8160    3.2650 C.3    29  MET29       0.1570
     58  C         35.9950   73.6580    2.5590 C.2    29  MET29       0.2261
     59  O         37.1570   73.7250    2.2120 O.2    29  MET29      -0.2867
     60  CB        36.0990   74.9600    4.5880 C.3    29  MET29       0.0387
     61  CG        36.1870   76.3500    5.2140 C.3    29  MET29       0.0595
     62  SD        36.2450   76.2220    7.0260 S.3    29  MET29      -0.1393
     63  CE        37.9910   76.2210    7.3120 C.3    29  MET29       0.0692
     64  N         37.6090   69.8020    1.9930 N.3    31  SER31      -0.1202
     65  CA        38.2170   68.7720    2.7840 C.3    31  SER31       0.2020
     66  C         39.5720   69.2100    3.2710 C.2    31  SER31       0.2618
     67  O         40.3680   69.8200    2.5540 O.2    31  SER31      -0.2717
     68  CB        38.3300   67.5080    1.9470 C.3    31  SER31       0.2103
     69  OG        37.1680   67.3560    1.1460 O.3    31  SER31      -0.2182
     70  N         39.8780   68.8900    4.5390 N.am   32  VAL32      -0.1979
     71  CA        41.0870   69.4220    5.1490 C.3    32  VAL32       0.1595
     72  C         42.2960   69.0250    4.3230 C.2    32  VAL32       0.2287
     73  O         43.1720   69.8390    4.0620 O.2    32  VAL32      -0.2864
     74  CB        41.2290   68.8980    6.6050 C.3    32  VAL32       0.0276
     75  CG1       42.4130   69.5690    7.2820 C.3    32  VAL32       0.0022
     76  CG2       39.9980   69.2500    7.4290 C.3    32  VAL32       0.0022
     77  N         39.8130   66.7850   15.3330 N.3    67  ARG67      -0.1245
     78  CA        39.6360   65.8480   14.2340 C.3    67  ARG67       0.1563
     79  C         40.9830   65.3280   13.7520 C.2    67  ARG67       0.2260
     80  O         41.7840   66.0950   13.2400 O.2    67  ARG67      -0.2867
     81  CB        38.9270   66.5480   13.0700 C.3    67  ARG67       0.0307
     82  CG        37.7290   67.4210   13.4430 C.3    67  ARG67       0.0489
     83  CD        36.6650   66.6470   14.2310 C.3    67  ARG67       0.2205
     84  NE        35.4840   67.4750   14.4190 N.pl3  67  ARG67      -0.0865
     85  CZ        34.3470   66.9850   14.9160 C.cat  67  ARG67       0.5346
     86  NH1       34.2380   65.6990   15.3640 N.pl3  67  ARG67       0.1354
     87  NH2       33.2720   67.8090   14.9810 N.pl3  67  ARG67       0.1354
@<TRIPOS>BOND
     1    69    68    1
     2    34    35    1
     3    34    33    1
     4    68    65    1
     5    64    65    1
     6    59    58    2
     7    52    51    2
     8    35    36    2
     9    67    66    2
    10    58    57    1
    11    65    66    1
    12    33    32    1
    13    36    37    1
    14    36    38    1
    15    57    56    1
    16    57    60    1
    17    66    70   am
    18    51    50    1
    19    42    41    2
    20    73    72    2
    21    50    53    1
    22    50    49    1
    23    32    29    1
    24    72    71    1
    25    13    12    1
    26    70    71    1
    27    60    61    1
    28    41    49   am
    29    41    40    1
    30    53    54    1
    31    49    55    1
    32    71    74    1
    33    29    30    1
    34    29    28    1
    35    61    62    1
    36    39    30   am
    37    39    40    1
    38    12     9    1
    39    17    16    2
    40    54    55    1
    41    30    31    2
    42    40    43    1
    43    28    16   am
    44    16    15    1
    45    46    44   ar
    46    46    48   ar
    47    43    44    1
    48    74    75    1
    49    74    76    1
    50    11    10    2
    51     9    10    1
    52     9     8    1
    53    10    14   am
    54    14    15    1
    55    62    63    1
    56     8     3   am
    57    44    45   ar
    58    48    47   ar
    59    15    18    1
    60     3     2    1
    61     3     4    2
    62     2     1    1
    63     2     5    1
    64    45    47   ar
    65    18    19    1
    66     5     6    1
    67     5     7    1
    68    19    20   ar
    69    19    21   ar
    70    20    22   ar
    71    21    24   ar
    72    21    23   ar
    73    24    26   ar
    74    22    23   ar
    75    23    25   ar
    76    26    27   ar
    77    25    27   ar
    78    81    82    1
    79    81    78    1
    80    80    79    2
    81    82    83    1
    82    79    78    1
    83    83    84    1
    84    78    77    1
    85    84    85    2
    86    85    87    1
    87    85    86    1
