@<TRIPOS>MOLECULE
tmp/1icmA00.pdb
 235 222 0 0 0
SMALL
GASTEIGER

@<TRIPOS>ATOM
      1  N         15.5060    1.5490   19.3960 N.3    14  TYR14      -0.1241
      2  CA        15.6900    2.0570   18.0620 C.3    14  TYR14       0.1605
      3  C         17.0610    2.6990   17.8010 C.2    14  TYR14       0.2264
      4  O         17.6580    2.6010   16.7120 O.2    14  TYR14      -0.2867
      5  CB        14.4630    2.9690   17.7820 C.3    14  TYR14       0.0534
      6  CG        14.3260    3.3360   16.3340 C.ar   14  TYR14      -0.0201
      7  CD1       14.4760    2.3730   15.3340 C.ar   14  TYR14      -0.0009
      8  CD2       14.0410    4.6370   15.9250 C.ar   14  TYR14      -0.0009
      9  CE1       14.3330    2.6630   13.9750 C.ar   14  TYR14       0.0417
     10  CE2       13.8790    4.9420   14.5760 C.ar   14  TYR14       0.0417
     11  CZ        14.0330    3.9730   13.5820 C.ar   14  TYR14       0.1957
     12  OH        13.8490    4.2890   12.2480 O.3    14  TYR14      -0.2866
     13  N         19.6160    0.0210   17.2310 N.3    17  PHE17      -0.1227
     14  CA        19.3760   -0.5900   15.9320 C.3    17  PHE17       0.1736
     15  C         19.9380    0.2800   14.8180 C.2    17  PHE17       0.2595
     16  O         20.5910   -0.1860   13.8680 O.2    17  PHE17      -0.2718
     17  CB        17.8580   -0.8750   15.7490 C.3    17  PHE17       0.0547
     18  CG        17.5380   -1.3720   14.3620 C.ar   17  PHE17      -0.0202
     19  CD1       17.3160   -0.5070   13.2950 C.ar   17  PHE17      -0.0042
     20  CD2       17.4930   -2.7450   14.1200 C.ar   17  PHE17      -0.0042
     21  CE1       17.0290   -0.9790   12.0180 C.ar   17  PHE17      -0.0003
     22  CE2       17.2380   -3.2480   12.8450 C.ar   17  PHE17      -0.0003
     23  CZ        17.0220   -2.3620   11.7950 C.ar   17  PHE17      -0.0000
     24  N         19.6960    1.6110   14.9310 N.am   18  MET18      -0.1979
     25  CA        20.2220    2.4970   13.8930 C.3    18  MET18       0.1605
     26  C         21.7550    2.5490   13.8900 C.2    18  MET18       0.2287
     27  O         22.3650    2.6580   12.8360 O.2    18  MET18      -0.2864
     28  CB        19.7040    3.9320   14.0940 C.3    18  MET18       0.0413
     29  CG        18.2400    4.0050   13.6920 C.3    18  MET18       0.0598
     30  SD        17.5930    5.7090   13.6230 S.3    18  MET18      -0.1393
     31  CE        17.1900    5.9260   15.3650 C.3    18  MET18       0.0692
     32  N         23.1610   -0.2900   11.8010 N.3    21  MET21      -0.1245
     33  CA        22.9040   -0.0410   10.3920 C.3    21  MET21       0.1570
     34  C         23.9160    0.9220    9.8090 C.2    21  MET21       0.2261
     35  O         23.9870    1.0160    8.5890 O.2    21  MET21      -0.2867
     36  CB        21.4820    0.5080   10.1400 C.3    21  MET21       0.0387
     37  CG        20.4350   -0.5850   10.3880 C.3    21  MET21       0.0595
     38  SD        20.1860   -1.6680    8.9510 S.3    21  MET21      -0.1393
     39  CE        19.7790   -0.4190    7.6950 C.3    21  MET21       0.0692
     40  N         24.1710    4.3200   11.0710 N.3    23  ILE23      -0.1245
     41  CA        23.7220    5.7240   11.1430 C.3    23  ILE23       0.1561
     42  C         24.4410    6.5060   12.2290 C.2    23  ILE23       0.2260
     43  O         24.5920    6.0400   13.3580 O.2    23  ILE23      -0.2867
     44  CB        22.2040    5.8540   11.2380 C.3    23  ILE23       0.0252
     45  CG1       21.5620    5.4500    9.9130 C.3    23  ILE23       0.0019
     46  CG2       21.7920    7.2830   11.5810 C.3    23  ILE23       0.0019
     47  CD1       20.9440    4.0610    9.9450 C.3    23  ILE23       0.0001
     48  N         22.1200   11.8000   13.3360 N.3    27  LYS27      -0.1245
     49  CA        21.0130   11.3130   12.5310 C.3    27  LYS27       0.1561
     50  C         20.1510   10.3290   13.3550 C.2    27  LYS27       0.2260
     51  O         18.9410   10.2260   13.1290 O.2    27  LYS27      -0.2867
     52  CB        21.4680   10.8210   11.1650 C.3    27  LYS27       0.0271
     53  CG        22.3380   11.8110   10.4070 C.3    27  LYS27       0.0035
     54  CD        21.5890   12.9710    9.7720 C.3    27  LYS27       0.0206
     55  CE        22.4980   13.9550    9.0260 C.3    27  LYS27       0.1093
     56  NZ        21.9030   15.2920    8.8250 N.3    27  LYS27      -0.1314
     57  N         16.2450   10.5880   13.8210 N.3    31  GLY31      -0.1225
     58  CA        15.4740    9.4180   13.4120 C.3    31  GLY31       0.1811
     59  C         14.4670    8.9930   14.4590 C.2    31  GLY31       0.2280
     60  O         13.3310    8.5940   14.1570 O.2    31  GLY31      -0.2866
     61  N          1.8750    6.7290    8.8810 N.3    38  LEU38      -0.1245
     62  CA         1.6630    5.8480    7.7330 C.3    38  LEU38       0.1561
     63  C          0.1660    5.7810    7.4310 C.2    38  LEU38       0.2260
     64  O         -0.6730    5.6460    8.3470 O.2    38  LEU38      -0.2867
     65  CB         2.0440    4.3980    8.1580 C.3    38  LEU38       0.0270
     66  CG         3.5040    4.1800    8.5730 C.3    38  LEU38       0.0019
     67  CD1        3.6750    2.7510    9.0610 C.3    38  LEU38       0.0001
     68  CD2        4.3800    4.3930    7.3370 C.3    38  LEU38       0.0001
     69  N          1.2130    2.2330    0.8680 N.3    49  VAL49      -0.1245
     70  CA         1.6230    2.8130    2.1390 C.3    49  VAL49       0.1561
     71  C          2.1780    4.2010    1.8590 C.2    49  VAL49       0.2260
     72  O          3.1510    4.3980    1.1330 O.2    49  VAL49      -0.2867
     73  CB         2.6810    2.0460    2.9200 C.3    49  VAL49       0.0252
     74  CG1        2.9330    2.6830    4.2850 C.3    49  VAL49       0.0019
     75  CG2        2.3210    0.5700    3.1110 C.3    49  VAL49       0.0019
     76  N          4.0280    7.0500    3.2850 N.3    51  GLU51      -0.1245
     77  CA         4.9050    7.2940    4.3890 C.3    51  GLU51       0.1567
     78  C          5.1660    8.7850    4.4550 C.2    51  GLU51       0.2260
     79  O          5.5300    9.3910    3.4260 O.2    51  GLU51      -0.2867
     80  CB         6.1880    6.4750    4.0840 C.3    51  GLU51       0.0388
     81  CG         7.3350    6.7030    5.0900 C.3    51  GLU51       0.1160
     82  CD         8.5680    5.9420    4.6780 C.2    51  GLU51       0.3649
     83  OE1        8.5350    4.8180    4.1910 O.co2  51  GLU51      -0.2457
     84  OE2        9.6750    6.6150    4.8860 O.co2  51  GLU51      -0.2457
     85  N         11.6180   13.6080    7.3840 N.3    55  PHE55      -0.1241
     86  CA        12.5710   13.4110    6.2920 C.3    55  PHE55       0.1605
     87  C         12.0110   13.4630    4.8890 C.2    55  PHE55       0.2264
     88  O         12.6310   13.9810    3.9550 O.2    55  PHE55      -0.2867
     89  CB        13.2770   12.0330    6.4090 C.3    55  PHE55       0.0534
     90  CG        14.0290   11.8310    7.6920 C.ar   55  PHE55      -0.0203
     91  CD1       15.2740   12.4320    7.8750 C.ar   55  PHE55      -0.0042
     92  CD2       13.5500   11.0440    8.7340 C.ar   55  PHE55      -0.0042
     93  CE1       16.0080   12.2720    9.0480 C.ar   55  PHE55      -0.0003
     94  CE2       14.2650   10.8730    9.9200 C.ar   55  PHE55      -0.0003
     95  CZ        15.5030   11.4900   10.0860 C.ar   55  PHE55      -0.0000
     96  N          4.7220    3.9990   -1.1110 N.3    60  VAL60      -0.1245
     97  CA         5.3540    2.6880   -1.2430 C.3    60  VAL60       0.1561
     98  C          4.2200    1.7770   -1.7080 C.2    60  VAL60       0.2260
     99  O          3.2010    1.6420   -1.0260 O.2    60  VAL60      -0.2867
    100  CB         5.9140    2.1650    0.0600 C.3    60  VAL60       0.0252
    101  CG1        6.7810    0.9430   -0.2170 C.3    60  VAL60       0.0019
    102  CG2        6.7460    3.2120    0.7960 C.3    60  VAL60       0.0019
    103  N          3.2620   -2.1760   -2.9860 N.3    62  PHE62      -0.1241
    104  CA         3.7110   -3.5380   -3.1370 C.3    62  PHE62       0.1605
    105  C          2.5840   -4.5690   -3.3000 C.2    62  PHE62       0.2264
    106  O          1.4690   -4.3670   -2.8380 O.2    62  PHE62      -0.2867
    107  CB         4.6220   -3.9630   -1.9820 C.3    62  PHE62       0.0534
    108  CG         4.0520   -3.8850   -0.6170 C.ar   62  PHE62      -0.0203
    109  CD1        3.3640   -4.9880   -0.1100 C.ar   62  PHE62      -0.0042
    110  CD2        4.2080   -2.7610    0.1860 C.ar   62  PHE62      -0.0042
    111  CE1        2.8710   -4.9570    1.1890 C.ar   62  PHE62      -0.0003
    112  CE2        3.7260   -2.7140    1.4880 C.ar   62  PHE62      -0.0003
    113  CZ         3.0450   -3.8230    1.9850 C.ar   62  PHE62      -0.0000
    114  N         10.1140   -6.2060   -4.4050 N.3    68  PHE68      -0.1241
    115  CA        10.1290   -4.8120   -4.8200 C.3    68  PHE68       0.1605
    116  C         11.3320   -4.1540   -4.1690 C.2    68  PHE68       0.2264
    117  O         11.9540   -4.7710   -3.2910 O.2    68  PHE68      -0.2867
    118  CB         8.7770   -4.1540   -4.4080 C.3    68  PHE68       0.0534
    119  CG         8.5920   -4.0150   -2.9320 C.ar   68  PHE68      -0.0203
    120  CD1        8.2210   -5.0820   -2.1170 C.ar   68  PHE68      -0.0042
    121  CD2        8.7290   -2.7770   -2.3030 C.ar   68  PHE68      -0.0042
    122  CE1        8.0760   -4.9160   -0.7420 C.ar   68  PHE68      -0.0003
    123  CE2        8.5870   -2.5850   -0.9280 C.ar   68  PHE68      -0.0003
    124  CZ         8.2560   -3.6780   -0.1290 C.ar   68  PHE68      -0.0000
    125  N         12.9970   -0.8290   -1.9910 N.3    70  TYR70      -0.1241
    126  CA        12.6400    0.2800   -1.1480 C.3    70  TYR70       0.1605
    127  C         13.9110    0.9270   -0.5980 C.2    70  TYR70       0.2264
    128  O         14.8350    0.2430   -0.2040 O.2    70  TYR70      -0.2867
    129  CB        11.8020   -0.2540    0.0190 C.3    70  TYR70       0.0534
    130  CG        11.5710    0.7250    1.1580 C.ar   70  TYR70      -0.0201
    131  CD1       10.5820    1.7040    1.0920 C.ar   70  TYR70      -0.0009
    132  CD2       12.3240    0.6320    2.3280 C.ar   70  TYR70      -0.0009
    133  CE1       10.3650    2.5900    2.1460 C.ar   70  TYR70       0.0417
    134  CE2       12.1210    1.5070    3.3880 C.ar   70  TYR70       0.0417
    135  CZ        11.1430    2.4970    3.3030 C.ar   70  TYR70       0.1957
    136  OH        10.9510    3.3410    4.3820 O.3    70  TYR70      -0.2866
    137  N         15.8260    3.6000    2.1800 N.3    72  LEU72      -0.1231
    138  CA        15.7200    4.3050    3.4390 C.3    72  LEU72       0.1693
    139  C         15.9680    5.7910    3.1710 C.2    72  LEU72       0.2592
    140  O         16.4520    6.1440    2.1110 O.2    72  LEU72      -0.2718
    141  CB        16.7810    3.8590    4.4450 C.3    72  LEU72       0.0284
    142  CG        16.7550    2.3670    4.6850 C.3    72  LEU72       0.0019
    143  CD1       17.5870    2.0830    5.9400 C.3    72  LEU72       0.0001
    144  CD2       15.2870    1.9480    4.8140 C.3    72  LEU72       0.0001
    145  N         15.6280    6.6360    4.1400 N.am   73  ALA73      -0.1966
    146  CA        15.7450    8.0860    4.0770 C.3    73  ALA73       0.1728
    147  C         17.1490    8.5210    3.7250 C.2    73  ALA73       0.2616
    148  O         17.3710    9.5260    3.0330 O.2    73  ALA73      -0.2715
    149  CB        15.3950    8.6510    5.4400 C.3    73  ALA73       0.0334
    150  N         18.0870    7.7230    4.2130 N.am   74  ASP74      -0.1971
    151  CA        19.4980    7.9820    3.9640 C.3    74  ASP74       0.1709
    152  C         20.0270    7.4440    2.6550 C.2    74  ASP74       0.2293
    153  O         21.2200    7.5110    2.4600 O.2    74  ASP74      -0.2864
    154  CB        20.4550    7.4700    5.0650 C.3    74  ASP74       0.1436
    155  CG        20.6670    5.9880    5.0750 C.2    74  ASP74       0.3671
    156  OD1       19.7760    5.3360    4.3820 O.co2  74  ASP74      -0.2456
    157  OD2       21.5620    5.4180    5.6820 O.co2  74  ASP74      -0.2456
    158  N         17.2090   -1.4970   -0.2640 N.3    78  LEU78      -0.1245
    159  CA        16.8330   -2.8440    0.1600 C.3    78  LEU78       0.1561
    160  C         15.9670   -3.4290   -0.9470 C.2    78  LEU78       0.2260
    161  O         15.3570   -2.6990   -1.7520 O.2    78  LEU78      -0.2867
    162  CB        15.8390   -2.8080    1.3780 C.3    78  LEU78       0.0270
    163  CG        16.1950   -1.9170    2.5550 C.3    78  LEU78       0.0019
    164  CD1       15.1510   -2.1240    3.6270 C.3    78  LEU78       0.0001
    165  CD2       17.4860   -2.4240    3.1430 C.3    78  LEU78       0.0001
    166  N          6.9410   -8.8160    1.0820 N.3    82  TRP82      -0.1241
    167  CA         6.1040   -8.9200    2.2400 C.3    82  TRP82       0.1605
    168  C          5.1350  -10.0800    1.9160 C.2    82  TRP82       0.2264
    169  O          4.6410  -10.2300    0.7740 O.2    82  TRP82      -0.2867
    170  CB         5.1840   -7.6660    2.3820 C.3    82  TRP82       0.0550
    171  CG         5.7680   -6.4180    2.9920 C.ar   82  TRP82       0.0003
    172  CD1        6.0830   -5.2780    2.3250 C.ar   82  TRP82       0.0946
    173  CD2        6.0730   -6.1900    4.3820 C.ar   82  TRP82       0.0152
    174  NE1        6.5960   -4.3870    3.2440 N.ar   82  TRP82      -0.2442
    175  CE2        6.5990   -4.8950    4.4960 C.ar   82  TRP82       0.0810
    176  CE3        5.9530   -6.9570    5.5400 C.ar   82  TRP82       0.0012
    177  CZ2        6.9600   -4.3560    5.7290 C.ar   82  TRP82       0.0191
    178  CZ3        6.3170   -6.4540    6.7770 C.ar   82  TRP82       0.0001
    179  CH2        6.8270   -5.1540    6.8430 C.ar   82  TRP82       0.0015
    180  N         13.8010   -8.9610    3.7880 N.3    93  PHE93      -0.1241
    181  CA        14.5930   -8.0290    2.9890 C.3    93  PHE93       0.1605
    182  C         16.1070   -8.2720    3.0830 C.2    93  PHE93       0.2264
    183  O         16.5950   -8.9460    3.9830 O.2    93  PHE93      -0.2867
    184  CB        14.3380   -6.5890    3.4800 C.3    93  PHE93       0.0534
    185  CG        12.9000   -6.1850    3.2620 C.ar   93  PHE93      -0.0203
    186  CD1       12.4610   -5.7960    1.9980 C.ar   93  PHE93      -0.0042
    187  CD2       12.0220   -6.2570    4.3450 C.ar   93  PHE93      -0.0042
    188  CE1       11.1080   -5.4750    1.8340 C.ar   93  PHE93      -0.0003
    189  CE2       10.6790   -5.9050    4.2060 C.ar   93  PHE93      -0.0003
    190  CZ        10.2440   -5.5320    2.9320 C.ar   93  PHE93      -0.0000
    191  N         17.5340   -8.3910    6.6290 N.3   102  LEU102     -0.1245
    192  CA        16.7630   -7.5520    7.5470 C.3   102  LEU102      0.1561
    193  C         15.3270   -8.0700    7.4850 C.2   102  LEU102      0.2260
    194  O         14.7260   -8.1580    6.4020 O.2   102  LEU102     -0.2867
    195  CB        16.7860   -6.0710    7.0850 C.3   102  LEU102      0.0270
    196  CG        16.1930   -5.0300    8.0630 C.3   102  LEU102      0.0019
    197  CD1       16.6480   -3.6260    7.6420 C.3   102  LEU102      0.0001
    198  CD2       14.6530   -5.1120    7.9940 C.3   102  LEU102      0.0001
    199  N         11.3210   -7.7750    8.8470 N.3   104  ALA104     -0.1245
    200  CA        10.4000   -6.8580    9.5070 C.3   104  ALA104      0.1562
    201  C          9.0390   -7.5420    9.6620 C.2   104  ALA104      0.2260
    202  O          8.6160   -8.2930    8.7780 O.2   104  ALA104     -0.2867
    203  CB        10.2320   -5.5480    8.7460 C.3   104  ALA104      0.0290
    204  N          4.8730   -6.7290   10.8790 N.3   106  ARG106     -0.1245
    205  CA         3.8190   -5.7860   11.2220 C.3   106  ARG106      0.1563
    206  C          2.6850   -6.6250   11.8070 C.2   106  ARG106      0.2260
    207  O          2.2260   -7.5830   11.2060 O.2   106  ARG106     -0.2867
    208  CB         3.2230   -5.0810   10.0230 C.3   106  ARG106      0.0307
    209  CG         4.0820   -3.9160    9.5700 C.3   106  ARG106      0.0489
    210  CD         3.4680   -3.2420    8.3560 C.3   106  ARG106      0.2205
    211  NE         4.1930   -2.0150    8.0540 N.pl3 106  ARG106     -0.0865
    212  CZ         4.5120   -1.5640    6.8520 C.cat 106  ARG106      0.5346
    213  NH1        4.2330   -2.2690    5.7510 N.pl3 106  ARG106      0.1354
    214  NH2        5.1720   -0.4090    6.7510 N.pl3 106  ARG106      0.1354
    215  N          5.5760   -2.6260   14.8020 N.3   115  GLN115     -0.1245
    216  CA         6.4860   -2.9420   13.7110 C.3   115  GLN115      0.1566
    217  C          7.7870   -3.3870   14.3460 C.2   115  GLN115      0.2260
    218  O          8.4190   -2.5950   15.0540 O.2   115  GLN115     -0.2867
    219  CB         6.8400   -1.7660   12.7700 C.3   115  GLN115      0.0367
    220  CG         5.7310   -1.3780   11.7950 C.3   115  GLN115      0.0905
    221  CD         6.1580   -0.4970   10.6210 C.2   115  GLN115      0.2608
    222  OE1        5.2760   -0.5950    9.6460 O.2   115  GLN115     -0.2717
    223  NE2        7.1800    0.2440   10.5610 N.am  115  GLN115     -0.0878
    224  N         11.7240   -4.9880   13.9210 N.3   117  TYR117     -0.1241
    225  CA        12.7920   -5.2420   12.9590 C.3   117  TYR117      0.1605
    226  C         13.9300   -6.0400   13.6350 C.2   117  TYR117      0.2264
    227  O         14.2190   -5.9000   14.8340 O.2   117  TYR117     -0.2867
    228  CB        13.5020   -3.9420   12.4710 C.3   117  TYR117      0.0534
    229  CG        12.6560   -2.7240   12.1220 C.ar  117  TYR117     -0.0201
    230  CD1       11.6890   -2.8020   11.1150 C.ar  117  TYR117     -0.0009
    231  CD2       12.8500   -1.4970   12.7610 C.ar  117  TYR117     -0.0009
    232  CE1       10.9120   -1.6940   10.7660 C.ar  117  TYR117      0.0417
    233  CE2       12.0940   -0.3730   12.4080 C.ar  117  TYR117      0.0417
    234  CZ        11.1090   -0.4760   11.4200 C.ar  117  TYR117      0.1957
    235  OH        10.3350    0.6120   11.0710 O.3   117  TYR117     -0.2866
@<TRIPOS>BOND
     1   115   118    1
     2   115   114    1
     3   115   116    1
     4   118   119    1
     5   116   117    2
     6   105   104    1
     7   105   106    2
     8   104   103    1
     9   104   107    1
    10   119   121   ar
    11   119   120   ar
    12   121   123   ar
    13   120   122   ar
    14   125   126    1
    15   107   108    1
    16   161   160    2
    17    98    97    1
    18    98    99    2
    19    97    96    1
    20    97   100    1
    21   126   127    1
    22   126   129    1
    23   160   159    1
    24   123   124   ar
    25   122   124   ar
    26   108   109   ar
    27   108   110   ar
    28   127   128    2
    29   158   159    1
    30   101   100    1
    31   109   111   ar
    32   129   130    1
    33   100   102    1
    34   159   162    1
    35   110   112   ar
    36   169   168    2
    37    69    70    1
    38   166   167    1
    39   131   130   ar
    40   131   133   ar
    41    72    71    2
    42   130   132   ar
    43   111   113   ar
    44   162   163    1
    45   112   113   ar
    46   188   186   ar
    47   188   190   ar
    48    71    70    1
    49   168   167    1
    50   186   185   ar
    51   140   139    2
    52    70    73    1
    53   133   135   ar
    54   137   138    1
    55   167   170    1
    56   172   171   ar
    57   172   174   ar
    58   132   134   ar
    59   170   171    1
    60   153   152    2
    61   163   165    1
    62   163   164    1
    63   152   151    1
    64    73    75    1
    65    73    74    1
    66   190   189   ar
    67   181   182    1
    68   181   184    1
    69   181   180    1
    70   171   173   ar
    71   148   147    2
    72   182   183    2
    73   139   138    1
    74   139   145   am
    75   174   175   ar
    76   185   184    1
    77   185   187   ar
    78    76    77    1
    79   135   134   ar
    80   135   136    1
    81    79    78    2
    82   138   141    1
    83   147   146    1
    84   147   150   am
    85    88    87    2
    86   151   150    1
    87   151   154    1
    88   146   145    1
    89   146   149    1
    90    80    77    1
    91    80    81    1
    92    83    82   ar
    93   189   187   ar
    94   156   155   ar
    95   173   175   ar
    96   173   176   ar
    97    77    78    1
    98   141   142    1
    99   175   177   ar
   100    82    84   ar
   101    82    81    1
   102   142   144    1
   103   142   143    1
   104    87    86    1
   105   154   155    1
   106   155   157   ar
   107   176   178   ar
   108   177   179   ar
   109   213   212    1
   110    86    89    1
   111    86    85    1
   112   194   193    2
   113    89    90    1
   114   191   192    1
   115   214   212    1
   116   178   179   ar
   117   212   211    2
   118   195   192    1
   119   195   196    1
   120    68    66    1
   121    63    62    1
   122    63    64    2
   123   193   192    1
   124   197   196    1
   125    90    91   ar
   126    90    92   ar
   127    39    38    1
   128    62    65    1
   129    62    61    1
   130    91    93   ar
   131   198   196    1
   132   211   210    1
   133    65    66    1
   134   210   209    1
   135    66    67    1
   136    35    34    2
   137    92    94   ar
   138   203   200    1
   139   202   201    2
   140    56    55    1
   141   199   200    1
   142    38    37    1
   143    55    54    1
   144    93    95   ar
   145   200   201    1
   146   209   208    1
   147   222   221    2
   148    54    53    1
   149    34    33    1
   150    45    47    1
   151    45    44    1
   152    94    95   ar
   153   208   205    1
   154    36    37    1
   155    36    33    1
   156    33    32    1
   157    53    52    1
   158   223   221   am
   159   221   220    1
   160   232   230   ar
   161   232   234   ar
   162   204   205    1
   163   235   234    1
   164    40    41    1
   165   230   229   ar
   166    41    44    1
   167    41    42    1
   168    52    49    1
   169   207   206    2
   170   205   206    1
   171    44    46    1
   172   234   233   ar
   173   220   219    1
   174    23    21   ar
   175    23    22   ar
   176    21    19   ar
   177   229   228    1
   178   229   231   ar
   179    42    43    2
   180    12    11    1
   181   233   231   ar
   182   228   225    1
   183    49    48    1
   184    49    50    1
   185   219   216    1
   186    27    26    2
   187    22    20   ar
   188   225   226    1
   189   225   224    1
   190    51    50    2
   191    19    18   ar
   192    58    57    1
   193    58    59    1
   194    11     9   ar
   195    11    10   ar
   196    30    29    1
   197    30    31    1
   198   226   227    2
   199    29    28    1
   200   216   217    1
   201   216   215    1
   202    16    15    2
   203    26    25    1
   204    25    28    1
   205    25    24    1
   206     9     7   ar
   207    20    18   ar
   208    60    59    2
   209   217   218    2
   210    18    17    1
   211    10     8   ar
   212    15    24   am
   213    15    14    1
   214     7     6   ar
   215    17    14    1
   216     8     6   ar
   217    14    13    1
   218     6     5    1
   219     4     3    2
   220     5     2    1
   221     3     2    1
   222     2     1    1
