@<TRIPOS>MOLECULE
tmp/1icnA00.pdb
 173 166 0 0 0
SMALL
GASTEIGER

@<TRIPOS>ATOM
      1  N         15.3230    1.4490   19.2750 N.3    14  TYR14      -0.1241
      2  CA        15.4990    1.9390   17.9300 C.3    14  TYR14       0.1605
      3  C         16.8380    2.6040   17.6620 C.2    14  TYR14       0.2264
      4  O         17.4260    2.4280   16.5690 O.2    14  TYR14      -0.2867
      5  CB        14.2940    2.8150   17.5960 C.3    14  TYR14       0.0534
      6  CG        14.2020    3.1970   16.1410 C.ar   14  TYR14      -0.0201
      7  CD1       14.3170    2.2430   15.1240 C.ar   14  TYR14      -0.0009
      8  CD2       13.8530    4.5060   15.8070 C.ar   14  TYR14      -0.0009
      9  CE1       14.0980    2.6040   13.7880 C.ar   14  TYR14       0.0417
     10  CE2       13.6270    4.8870   14.4810 C.ar   14  TYR14       0.0417
     11  CZ        13.7850    3.9340   13.4660 C.ar   14  TYR14       0.1957
     12  OH        13.5830    4.2890   12.1550 O.3    14  TYR14      -0.2866
     13  N         19.3800    0.0060   16.9870 N.3    17  PHE17      -0.1227
     14  CA        19.1510   -0.6540   15.7080 C.3    17  PHE17       0.1736
     15  C         19.7180    0.2480   14.6090 C.2    17  PHE17       0.2595
     16  O         20.4480   -0.2260   13.7280 O.2    17  PHE17      -0.2718
     17  CB        17.6650   -0.9330   15.5260 C.3    17  PHE17       0.0547
     18  CG        17.3240   -1.5250   14.1840 C.ar   17  PHE17      -0.0202
     19  CD1       17.0420   -0.7060   13.0820 C.ar   17  PHE17      -0.0042
     20  CD2       17.2970   -2.9170   14.0560 C.ar   17  PHE17      -0.0042
     21  CE1       16.6820   -1.2780   11.8590 C.ar   17  PHE17      -0.0003
     22  CE2       16.9440   -3.5000   12.8360 C.ar   17  PHE17      -0.0003
     23  CZ        16.6580   -2.6700   11.7460 C.ar   17  PHE17      -0.0000
     24  N         19.4740    1.5620   14.7210 N.am   18  MET18      -0.1979
     25  CA        20.0350    2.5060   13.7630 C.3    18  MET18       0.1605
     26  C         21.5390    2.5520   13.7600 C.2    18  MET18       0.2287
     27  O         22.1750    2.6290   12.7200 O.2    18  MET18      -0.2864
     28  CB        19.4490    3.8820   13.9810 C.3    18  MET18       0.0413
     29  CG        18.0210    3.8870   13.5160 C.3    18  MET18       0.0598
     30  SD        17.3810    5.5830   13.4790 S.3    18  MET18      -0.1393
     31  CE        16.9360    5.8930   15.2110 C.3    18  MET18       0.0692
     32  N         22.8880   -0.3550   11.8060 N.3    21  MET21      -0.1245
     33  CA        22.6570   -0.0670   10.4170 C.3    21  MET21       0.1570
     34  C         23.7180    0.8770    9.8770 C.2    21  MET21       0.2261
     35  O         23.9370    0.8970    8.6720 O.2    21  MET21      -0.2867
     36  CB        21.2460    0.4640   10.2320 C.3    21  MET21       0.0387
     37  CG        20.2870   -0.7060   10.3920 C.3    21  MET21       0.0595
     38  SD        20.0430   -1.7320    8.8780 S.3    21  MET21      -0.1393
     39  CE        19.0970   -0.5360    7.8820 C.3    21  MET21       0.0692
     40  N         24.0010    4.3050   11.0310 N.3    23  ILE23      -0.1245
     41  CA        23.5540    5.6970   11.0190 C.3    23  ILE23       0.1561
     42  C         24.2830    6.4750   12.0620 C.2    23  ILE23       0.2260
     43  O         24.4500    5.9800   13.1540 O.2    23  ILE23      -0.2867
     44  CB        22.0620    5.7170   11.2410 C.3    23  ILE23       0.0252
     45  CG1       21.5060    5.0160   10.0170 C.3    23  ILE23       0.0019
     46  CG2       21.6090    7.1660   11.2840 C.3    23  ILE23       0.0019
     47  CD1       20.0210    4.7630   10.1570 C.3    23  ILE23       0.0001
     48  N         22.0270   11.7180   13.3980 N.3    27  LYS27      -0.1245
     49  CA        20.9210   11.2540   12.5490 C.3    27  LYS27       0.1561
     50  C         19.9780   10.3000   13.2980 C.2    27  LYS27       0.2260
     51  O         18.7660   10.2480   12.9760 O.2    27  LYS27      -0.2867
     52  CB        21.3660   10.7120   11.1910 C.3    27  LYS27       0.0271
     53  CG        22.2970   11.7020   10.4730 C.3    27  LYS27       0.0035
     54  CD        21.6800   13.0630   10.1320 C.3    27  LYS27       0.0206
     55  CE        22.6550   14.0060    9.4080 C.3    27  LYS27       0.1093
     56  NZ        22.0490   15.2800    8.9680 N.3    27  LYS27      -0.1314
     57  N         16.1030   10.4550   13.6410 N.3    31  GLY31      -0.1225
     58  CA        15.3060    9.3050   13.2480 C.3    31  GLY31       0.1811
     59  C         14.2910    8.8670   14.2720 C.2    31  GLY31       0.2280
     60  O         13.1680    8.4290   13.9440 O.2    31  GLY31      -0.2866
     61  N         11.4780   13.4650    7.1890 N.3    55  PHE55      -0.1241
     62  CA        12.4450   13.2590    6.1120 C.3    55  PHE55       0.1605
     63  C         11.9130   13.3360    4.7010 C.2    55  PHE55       0.2264
     64  O         12.5920   13.9080    3.8430 O.2    55  PHE55      -0.2867
     65  CB        13.1660   11.9130    6.1780 C.3    55  PHE55       0.0534
     66  CG        13.7780   11.7330    7.5380 C.ar   55  PHE55      -0.0203
     67  CD1       14.7220   12.6450    8.0100 C.ar   55  PHE55      -0.0042
     68  CD2       13.4260   10.6660    8.3630 C.ar   55  PHE55      -0.0042
     69  CE1       15.3100   12.4600    9.2680 C.ar   55  PHE55      -0.0003
     70  CE2       14.0250   10.4700    9.6080 C.ar   55  PHE55      -0.0003
     71  CZ        14.9730   11.3770   10.0790 C.ar   55  PHE55      -0.0000
     72  N         10.1640   -6.2330   -4.4730 N.3    68  PHE68      -0.1241
     73  CA        10.1440   -4.8360   -4.8480 C.3    68  PHE68       0.1605
     74  C         11.2850   -4.1650   -4.1770 C.2    68  PHE68       0.2264
     75  O         11.9790   -4.7790   -3.3560 O.2    68  PHE68      -0.2867
     76  CB         8.8240   -4.1860   -4.5320 C.3    68  PHE68       0.0534
     77  CG         8.6110   -3.9230   -3.0680 C.ar   68  PHE68      -0.0203
     78  CD1        8.3260   -4.9690   -2.1880 C.ar   68  PHE68      -0.0042
     79  CD2        8.5680   -2.6030   -2.6130 C.ar   68  PHE68      -0.0042
     80  CE1        8.1460   -4.6910   -0.8370 C.ar   68  PHE68      -0.0003
     81  CE2        8.3360   -2.2940   -1.2700 C.ar   68  PHE68      -0.0003
     82  CZ         8.1680   -3.3660   -0.3900 C.ar   68  PHE68      -0.0000
     83  N         13.0210   -0.9800   -2.0040 N.3    70  TYR70      -0.1241
     84  CA        12.6240    0.0570   -1.0960 C.3    70  TYR70       0.1605
     85  C         13.8820    0.7170   -0.5810 C.2    70  TYR70       0.2264
     86  O         14.8110    0.0360   -0.1720 O.2    70  TYR70      -0.2867
     87  CB        11.8160   -0.5520    0.1120 C.3    70  TYR70       0.0534
     88  CG        11.4320    0.4380    1.2210 C.ar   70  TYR70      -0.0201
     89  CD1       10.3820    1.3350    1.0460 C.ar   70  TYR70      -0.0009
     90  CD2       12.1320    0.5210    2.4250 C.ar   70  TYR70      -0.0009
     91  CE1        9.9820    2.2730    2.0010 C.ar   70  TYR70       0.0417
     92  CE2       11.7350    1.4230    3.4150 C.ar   70  TYR70       0.0417
     93  CZ        10.6870    2.3150    3.2060 C.ar   70  TYR70       0.1957
     94  OH        10.3760    3.2580    4.1670 O.3    70  TYR70      -0.2866
     95  N         15.5500    3.2840    2.2380 N.3    72  LEU72      -0.1231
     96  CA        15.5180    3.8510    3.5870 C.3    72  LEU72       0.1693
     97  C         15.7380    5.3660    3.4680 C.2    72  LEU72       0.2592
     98  O         16.2890    5.8820    2.4910 O.2    72  LEU72      -0.2718
     99  CB        16.5650    3.2010    4.5480 C.3    72  LEU72       0.0284
    100  CG        16.3420    1.7010    4.7570 C.3    72  LEU72       0.0019
    101  CD1       17.2510    1.1140    5.8500 C.3    72  LEU72       0.0001
    102  CD2       14.8650    1.4850    5.0600 C.3    72  LEU72       0.0001
    103  N         15.3430    6.1350    4.4760 N.am   73  ALA73      -0.1966
    104  CA        15.4610    7.5680    4.3830 C.3    73  ALA73       0.1728
    105  C         16.9140    7.9800    4.2450 C.2    73  ALA73       0.2616
    106  O         17.2650    9.0210    3.6930 O.2    73  ALA73      -0.2715
    107  CB        14.7830    8.1970    5.5940 C.3    73  ALA73       0.0334
    108  N         17.7940    7.1190    4.7230 N.am   74  ASP74      -0.1971
    109  CA        19.1650    7.5570    4.5670 C.3    74  ASP74       0.1709
    110  C         19.7980    7.2220    3.2460 C.2    74  ASP74       0.2293
    111  O         20.9800    7.4540    3.0620 O.2    74  ASP74      -0.2864
    112  CB        20.0210    6.9340    5.6440 C.3    74  ASP74       0.1436
    113  CG        20.2730    5.4850    5.3530 C.2    74  ASP74       0.3671
    114  OD1       19.2430    4.8300    4.8630 O.co2  74  ASP74      -0.2456
    115  OD2       21.3470    4.9700    5.6220 O.co2  74  ASP74      -0.2456
    116  N         17.0270   -1.5210   -0.1400 N.3    78  LEU78      -0.1245
    117  CA        16.6880   -2.8970    0.1840 C.3    78  LEU78       0.1561
    118  C         15.8270   -3.4850   -0.9360 C.2    78  LEU78       0.2260
    119  O         15.0740   -2.7990   -1.6480 O.2    78  LEU78      -0.2867
    120  CB        15.6560   -2.8970    1.3700 C.3    78  LEU78       0.0270
    121  CG        16.0390   -2.1080    2.6350 C.3    78  LEU78       0.0019
    122  CD1       14.9720   -2.2940    3.7210 C.3    78  LEU78       0.0001
    123  CD2       17.3560   -2.6700    3.1310 C.3    78  LEU78       0.0001
    124  N          6.8980   -8.8150    1.0110 N.3    82  TRP82      -0.1241
    125  CA         6.0530   -8.8670    2.1630 C.3    82  TRP82       0.1605
    126  C          5.0850  -10.0160    1.8200 C.2    82  TRP82       0.2264
    127  O          4.5790  -10.1550    0.6840 O.2    82  TRP82      -0.2867
    128  CB         5.1660   -7.6040    2.3160 C.3    82  TRP82       0.0550
    129  CG         5.8430   -6.3720    2.8470 C.ar   82  TRP82       0.0003
    130  CD1        6.1540   -5.2480    2.1540 C.ar   82  TRP82       0.0946
    131  CD2        6.1650   -6.0830    4.2230 C.ar   82  TRP82       0.0152
    132  NE1        6.7220   -4.3090    3.0030 N.ar   82  TRP82      -0.2442
    133  CE2        6.7000   -4.7790    4.2860 C.ar   82  TRP82       0.0810
    134  CE3        6.0430   -6.8300    5.3940 C.ar   82  TRP82       0.0012
    135  CZ2        7.1360   -4.1860    5.4630 C.ar   82  TRP82       0.0191
    136  CZ3        6.4400   -6.2220    6.5680 C.ar   82  TRP82       0.0001
    137  CH2        7.0380   -4.9540    6.5830 C.ar   82  TRP82       0.0015
    138  N         13.6880   -8.8660    3.7360 N.3    93  PHE93      -0.1241
    139  CA        14.4590   -7.9640    2.9060 C.3    93  PHE93       0.1605
    140  C         15.9360   -8.2380    2.9780 C.2    93  PHE93       0.2264
    141  O         16.4040   -8.9900    3.8080 O.2    93  PHE93      -0.2867
    142  CB        14.2820   -6.5310    3.3930 C.3    93  PHE93       0.0534
    143  CG        12.8450   -6.1600    3.1530 C.ar   93  PHE93      -0.0203
    144  CD1       12.4440   -5.7370    1.8850 C.ar   93  PHE93      -0.0042
    145  CD2       11.8980   -6.2990    4.1670 C.ar   93  PHE93      -0.0042
    146  CE1       11.1080   -5.4440    1.6040 C.ar   93  PHE93      -0.0003
    147  CE2       10.5620   -5.9850    3.9110 C.ar   93  PHE93      -0.0003
    148  CZ        10.1720   -5.5880    2.6310 C.ar   93  PHE93      -0.0000
    149  N         17.3390   -8.3720    6.6020 N.3   102  LEU102     -0.1245
    150  CA        16.6170   -7.4640    7.4640 C.3   102  LEU102      0.1561
    151  C         15.1840   -7.9590    7.4600 C.2   102  LEU102      0.2260
    152  O         14.5630   -8.0260    6.4120 O.2   102  LEU102     -0.2867
    153  CB        16.7290   -5.9950    6.9890 C.3   102  LEU102      0.0270
    154  CG        16.1940   -4.9540    8.0070 C.3   102  LEU102      0.0019
    155  CD1       16.5090   -3.5160    7.5630 C.3   102  LEU102      0.0001
    156  CD2       14.6770   -5.1340    8.1630 C.3   102  LEU102      0.0001
    157  N         11.1790   -7.8410    8.9990 N.3   104  ALA104     -0.1245
    158  CA        10.2590   -6.9070    9.6240 C.3   104  ALA104      0.1562
    159  C          8.9390   -7.6390    9.7610 C.2   104  ALA104      0.2260
    160  O          8.5460   -8.4380    8.9150 O.2   104  ALA104     -0.2867
    161  CB        10.0680   -5.6700    8.7650 C.3   104  ALA104      0.0290
    162  N         11.6080   -5.0100   13.8810 N.3   117  TYR117     -0.1241
    163  CA        12.6860   -5.2060   12.9110 C.3   117  TYR117      0.1605
    164  C         13.8090   -5.9900   13.5690 C.2   117  TYR117      0.2264
    165  O         14.0810   -5.8200   14.7680 O.2   117  TYR117     -0.2867
    166  CB        13.3260   -3.8350   12.4800 C.3   117  TYR117      0.0534
    167  CG        12.3190   -2.7060   12.2360 C.ar  117  TYR117     -0.0201
    168  CD1       11.1870   -2.8760   11.4310 C.ar  117  TYR117     -0.0009
    169  CD2       12.5600   -1.4280   12.7580 C.ar  117  TYR117     -0.0009
    170  CE1       10.2440   -1.8500   11.2750 C.ar  117  TYR117      0.0417
    171  CE2       11.6680   -0.3760   12.5640 C.ar  117  TYR117      0.0417
    172  CZ        10.5050   -0.5930   11.8240 C.ar  117  TYR117      0.1957
    173  OH         9.6280    0.4640   11.6340 O.3   117  TYR117     -0.2866
@<TRIPOS>BOND
     1    73    76    1
     2    73    72    1
     3    73    74    1
     4    76    77    1
     5    74    75    2
     6    77    79   ar
     7    77    78   ar
     8    79    81   ar
     9    78    80   ar
    10    83    84    1
    11   119   118    2
    12    81    82   ar
    13    84    85    1
    14    84    87    1
    15   118   117    1
    16    80    82   ar
    17    85    86    2
    18   116   117    1
    19    87    88    1
    20   117   120    1
    21   127   126    2
    22   124   125    1
    23    89    88   ar
    24    89    91   ar
    25    88    90   ar
    26   120   121    1
    27   146   144   ar
    28   146   148   ar
    29   126   125    1
    30   144   143   ar
    31    91    93   ar
    32   130   129   ar
    33   130   132   ar
    34   125   128    1
    35    95    96    1
    36   128   129    1
    37    90    92   ar
    38    98    97    2
    39   148   147   ar
    40   121   123    1
    41   121   122    1
    42   129   131   ar
    43   139   140    1
    44   139   142    1
    45   139   138    1
    46   140   141    2
    47   132   133   ar
    48   111   110    2
    49   143   142    1
    50   143   145   ar
    51    93    92   ar
    52    93    94    1
    53   110   109    1
    54    97    96    1
    55    97   103   am
    56    96    99    1
    57   106   105    2
    58    64    63    2
    59   147   145   ar
    60   131   133   ar
    61   131   134   ar
    62   105   104    1
    63   105   108   am
    64   133   135   ar
    65   104   103    1
    66   104   107    1
    67    99   100    1
    68   109   108    1
    69   109   112    1
    70    63    62    1
    71   100   102    1
    72   100   101    1
    73   114   113   ar
    74   113   115   ar
    75   113   112    1
    76   134   136   ar
    77   135   137   ar
    78    62    65    1
    79    62    61    1
    80    65    66    1
    81   152   151    2
    82   136   137   ar
    83   149   150    1
    84   153   150    1
    85   153   154    1
    86   151   150    1
    87    66    67   ar
    88    66    68   ar
    89   155   154    1
    90    39    38    1
    91   154   156    1
    92    67    69   ar
    93    68    70   ar
    94    35    34    2
    95   161   158    1
    96    38    37    1
    97   160   159    2
    98    56    55    1
    99   157   158    1
   100    69    71   ar
   101    55    54    1
   102    70    71   ar
   103   158   159    1
   104    34    33    1
   105    45    47    1
   106    45    44    1
   107    54    53    1
   108    36    37    1
   109    36    33    1
   110    33    32    1
   111    53    52    1
   112    41    40    1
   113    41    44    1
   114    41    42    1
   115    52    49    1
   116    44    46    1
   117   170   168   ar
   118   170   172   ar
   119   168   167   ar
   120   173   172    1
   121    23    21   ar
   122    23    22   ar
   123   172   171   ar
   124    21    19   ar
   125    42    43    2
   126    12    11    1
   127   167   166    1
   128   167   169   ar
   129   166   163    1
   130    49    50    1
   131    49    48    1
   132   171   169   ar
   133    27    26    2
   134    22    20   ar
   135   163   164    1
   136   163   162    1
   137    51    50    2
   138    19    18   ar
   139    58    57    1
   140    58    59    1
   141    11     9   ar
   142    11    10   ar
   143    30    29    1
   144    30    31    1
   145    29    28    1
   146   164   165    2
   147    16    15    2
   148    26    25    1
   149    25    28    1
   150    25    24    1
   151     9     7   ar
   152    60    59    2
   153    20    18   ar
   154    18    17    1
   155    10     8   ar
   156    15    24   am
   157    15    14    1
   158     7     6   ar
   159    17    14    1
   160    14    13    1
   161     8     6   ar
   162     6     5    1
   163     4     3    2
   164     5     2    1
   165     3     2    1
   166     2     1    1
