@<TRIPOS>MOLECULE
tmp/1icpB00.pdb
 186 182 0 0 0
SMALL
GASTEIGER

@<TRIPOS>ATOM
      1  N         47.4980   36.9690   22.1160 N.3    25  ALA25      -0.1231
      2  CA        46.5350   36.1410   21.3910 C.3    25  ALA25       0.1679
      3  C         45.5570   35.4930   22.3750 C.2    25  ALA25       0.2434
      4  O         45.8510   35.3790   23.5670 O.2    25  ALA25      -0.2733
      5  CB        47.2590   35.0380   20.5920 C.3    25  ALA25       0.0304
      6  N         44.3810   35.0660   21.8860 N.am   26  PRO26      -0.2718
      7  CA        43.3630   34.4190   22.7280 C.3    26  PRO26       0.1535
      8  C         43.9430   33.0550   23.0840 C.2    26  PRO26       0.2598
      9  O         44.3150   32.2990   22.1910 O.2    26  PRO26      -0.2715
     10  CB        42.1570   34.2670   21.8060 C.3    26  PRO26       0.0310
     11  CG        42.4680   35.0840   20.5930 C.3    26  PRO26       0.0237
     12  CD        43.9550   35.1280   20.4790 C.3    26  PRO26       0.0939
     13  N         44.0110   32.7430   24.3720 N.am   27  LEU27      -0.1964
     14  CA        44.6020   31.4860   24.8140 C.3    27  LEU27       0.1728
     15  C         43.8020   30.7350   25.8720 C.2    27  LEU27       0.2617
     16  O         43.7440   31.1640   27.0240 O.2    27  LEU27      -0.2715
     17  CB        45.9990   31.7550   25.3780 C.3    27  LEU27       0.0311
     18  CG        47.0280   32.3710   24.4340 C.3    27  LEU27       0.0022
     19  CD1       48.1700   32.9860   25.2370 C.3    27  LEU27       0.0001
     20  CD2       47.5330   31.2820   23.4800 C.3    27  LEU27       0.0001
     21  N         43.2120   29.6120   25.4770 N.am   28  THR28      -0.1937
     22  CA        42.4510   28.7650   26.3960 C.3    28  THR28       0.2028
     23  C         43.4560   28.0930   27.3380 C.2    28  THR28       0.2642
     24  O         44.3900   27.4220   26.8860 O.2    28  THR28      -0.2714
     25  CB        41.6600   27.6930   25.6150 C.3    28  THR28       0.1808
     26  OG1       40.5730   28.3200   24.9230 O.3    28  THR28      -0.2208
     27  CG2       41.1100   26.6180   26.5520 C.3    28  THR28       0.0379
     28  N         43.2790   28.2880   28.6420 N.am   29  ARG29      -0.1977
     29  CA        44.1920   27.7160   29.6250 C.3    29  ARG29       0.1597
     30  C         43.4870   26.7440   30.5900 C.2    29  ARG29       0.2287
     31  O         44.1100   26.2020   31.4970 O.2    29  ARG29      -0.2864
     32  CB        44.8830   28.8420   30.4100 C.3    29  ARG29       0.0334
     33  CG        45.5610   29.9080   29.5320 C.3    29  ARG29       0.0492
     34  CD        46.5840   29.2940   28.5840 C.3    29  ARG29       0.2205
     35  NE        47.6040   28.5480   29.3170 N.pl3  29  ARG29      -0.0865
     36  CZ        48.6000   29.0930   30.0090 C.cat  29  ARG29       0.5346
     37  NH1       48.7450   30.4150   30.0820 N.pl3  29  ARG29       0.1354
     38  NH2       49.4570   28.3030   30.6440 N.pl3  29  ARG29       0.1354
     39  N         39.1830   32.0050   24.8730 N.3    59  ALA59      -0.1245
     40  CA        37.8590   31.7110   24.3290 C.3    59  ALA59       0.1562
     41  C         36.8450   31.6350   25.4780 C.2    59  ALA59       0.2260
     42  O         37.0340   30.8920   26.4450 O.2    59  ALA59      -0.2867
     43  CB        37.8940   30.4070   23.5500 C.3    59  ALA59       0.0290
     44  N         37.0080   37.2160   23.8310 N.3   101  GLN101     -0.1245
     45  CA        36.7340   36.3840   22.6610 C.3   101  GLN101      0.1566
     46  C         35.4910   35.5410   22.9730 C.2   101  GLN101      0.2260
     47  O         35.4870   34.7690   23.9360 O.2   101  GLN101     -0.2867
     48  CB        37.9170   35.4630   22.3060 C.3   101  GLN101      0.0367
     49  CG        37.6910   34.7230   20.9710 C.3   101  GLN101      0.0905
     50  CD        38.7240   33.6450   20.6660 C.2   101  GLN101      0.2608
     51  OE1       38.9580   32.7350   21.4660 O.2   101  GLN101     -0.2717
     52  NE2       39.3400   33.7370   19.4810 N.am  101  GLN101     -0.0878
     53  N         34.7670   34.4850   17.7750 N.3   178  HIS178     -0.1241
     54  CA        35.5820   33.3200   17.4440 C.3   178  HIS178      0.1621
     55  C         35.0600   32.5980   16.1930 C.2   178  HIS178      0.2264
     56  O         34.2240   31.6980   16.2820 O.2   178  HIS178     -0.2867
     57  CB        35.6110   32.3330   18.6200 C.3   178  HIS178      0.0745
     58  CG        36.7190   31.3310   18.5320 C.ar  178  HIS178      0.0817
     59  ND1       37.2630   30.9250   17.3290 N.ar  178  HIS178     -0.2268
     60  CD2       37.3920   30.6590   19.4950 C.ar  178  HIS178      0.1154
     61  CE1       38.2240   30.0490   17.5580 C.ar  178  HIS178      0.1986
     62  NE2       38.3230   29.8690   18.8630 N.ar  178  HIS178     -0.2212
     63  N         39.1960   27.8970   13.7930 N.3   181  HIS181     -0.1241
     64  CA        39.4950   26.5560   14.2740 C.3   181  HIS181      0.1621
     65  C         38.4250   25.4750   14.3440 C.2   181  HIS181      0.2264
     66  O         38.4110   24.6600   15.2750 O.2   181  HIS181     -0.2867
     67  CB        40.1730   26.6950   15.6460 C.3   181  HIS181      0.0745
     68  CG        41.3650   27.6010   15.6300 C.ar  181  HIS181      0.0817
     69  ND1       41.5500   28.6110   16.5520 N.ar  181  HIS181     -0.2268
     70  CD2       42.4330   27.6490   14.8000 C.ar  181  HIS181      0.1154
     71  CE1       42.6810   29.2390   16.2890 C.ar  181  HIS181      0.1986
     72  NE2       43.2360   28.6740   15.2300 N.ar  181  HIS181     -0.2212
     73  N         37.8290   36.7930   14.3610 N.3   230  ARG230     -0.1245
     74  CA        38.9830   35.9750   14.0270 C.3   230  ARG230      0.1563
     75  C         38.5770   34.8260   13.1380 C.2   230  ARG230      0.2260
     76  O         37.5840   34.1580   13.4030 O.2   230  ARG230     -0.2867
     77  CB        39.6410   35.4120   15.2890 C.3   230  ARG230      0.0307
     78  CG        41.0260   34.8470   15.0150 C.3   230  ARG230      0.0489
     79  CD        41.6870   34.2910   16.2660 C.3   230  ARG230      0.2205
     80  NE        43.1290   34.5090   16.2590 N.pl3 230  ARG230     -0.0865
     81  CZ        44.0090   33.7170   16.8730 C.cat 230  ARG230      0.5346
     82  NH1       43.6020   32.6380   17.5380 N.pl3 230  ARG230      0.1354
     83  NH2       45.2950   34.0230   16.8620 N.pl3 230  ARG230      0.1354
     84  N         44.5540   33.8930   11.1920 N.3   267  VAL267     -0.1245
     85  CA        45.6280   32.9740   11.5530 C.3   267  VAL267      0.1561
     86  C         46.4010   32.5250   10.3090 C.2   267  VAL267      0.2260
     87  O         45.8100   32.1900    9.2810 O.2   267  VAL267     -0.2867
     88  CB        45.0800   31.7150   12.2530 C.3   267  VAL267      0.0252
     89  CG1       46.2450   30.7930   12.6350 C.3   267  VAL267      0.0019
     90  CG2       44.2730   32.1160   13.4980 C.3   267  VAL267      0.0019
     91  N         48.5590   36.1800   13.2590 N.3   291  ALA291     -0.1231
     92  CA        49.0560   35.3330   14.3380 C.3   291  ALA291      0.1694
     93  C         49.4330   33.9640   13.8070 C.2   291  ALA291      0.2593
     94  O         48.9010   33.5130   12.7900 O.2   291  ALA291     -0.2718
     95  CB        47.9970   35.1690   15.4150 C.3   291  ALA291      0.0304
     96  N         50.3520   33.3070   14.5050 N.am  292  GLY292     -0.1942
     97  CA        50.7490   31.9720   14.0990 C.3   292  GLY292      0.2014
     98  C         52.2180   31.8000   13.7870 C.2   292  GLY292      0.2639
     99  O         52.6360   32.0520   12.6650 O.2   292  GLY292     -0.2714
    100  N         52.9930   31.3850   14.7880 N.am  293  GLY293     -0.1939
    101  CA        54.4140   31.1410   14.5950 C.3   293  GLY293      0.2014
    102  C         55.3550   32.3310   14.5590 C.2   293  GLY293      0.2638
    103  O         56.4760   32.2020   14.0780 O.2   293  GLY293     -0.2714
    104  N         54.9330   33.4830   15.0690 N.am  294  TYR294     -0.1973
    105  CA        55.7980   34.6560   15.0510 C.3   294  TYR294      0.1639
    106  C         56.8170   34.7530   16.1790 C.2   294  TYR294      0.2290
    107  O         56.5920   34.2780   17.2930 O.2   294  TYR294     -0.2864
    108  CB        54.9690   35.9510   15.0620 C.3   294  TYR294      0.0560
    109  CG        54.3250   36.2830   13.7310 C.ar  294  TYR294     -0.0198
    110  CD1       53.0930   35.7410   13.3730 C.ar  294  TYR294     -0.0009
    111  CD2       54.9740   37.1200   12.8170 C.ar  294  TYR294     -0.0009
    112  CE1       52.5170   36.0200   12.1310 C.ar  294  TYR294      0.0417
    113  CE2       54.4130   37.4060   11.5790 C.ar  294  TYR294      0.0417
    114  CZ        53.1880   36.8510   11.2400 C.ar  294  TYR294      0.1957
    115  OH        52.6490   37.1070   10.0060 O.3   294  TYR294     -0.2866
    116  N         49.8210   39.1910   16.8620 N.3   312  ALA312     -0.1231
    117  CA        49.4200   38.5270   18.0910 C.3   312  ALA312      0.1694
    118  C         50.3380   37.3580   18.3860 C.2   312  ALA312      0.2592
    119  O         50.7040   36.5960   17.4860 O.2   312  ALA312     -0.2718
    120  CB        47.9690   38.0520   17.9880 C.3   312  ALA312      0.0304
    121  N         50.7000   37.2270   19.6600 N.am  313  TYR313     -0.1962
    122  CA        51.5940   36.1760   20.1280 C.3   313  TYR313      0.1771
    123  C         50.8850   35.3050   21.1530 C.2   313  TYR313      0.2620
    124  O         50.2320   35.8110   22.0600 O.2   313  TYR313     -0.2715
    125  CB        52.8350   36.8040   20.7680 C.3   313  TYR313      0.0574
    126  CG        53.7360   37.4920   19.7660 C.ar  313  TYR313     -0.0198
    127  CD1       54.7310   36.7790   19.1020 C.ar  313  TYR313     -0.0009
    128  CD2       53.5610   38.8380   19.4440 C.ar  313  TYR313     -0.0009
    129  CE1       55.5310   37.3810   18.1380 C.ar  313  TYR313      0.0417
    130  CE2       54.3620   39.4570   18.4760 C.ar  313  TYR313      0.0417
    131  CZ        55.3450   38.7150   17.8260 C.ar  313  TYR313      0.1957
    132  OH        56.1400   39.2910   16.8600 O.3   313  TYR313     -0.2866
    133  N         51.0200   33.9950   20.9950 N.am  314  GLY314     -0.1940
    134  CA        50.4090   33.0710   21.9180 C.3   314  GLY314      0.2014
    135  C         51.4320   32.4540   22.8480 C.2   314  GLY314      0.2639
    136  O         51.6250   32.9210   23.9680 O.2   314  GLY314     -0.2714
    137  N         52.1200   31.4200   22.3710 N.am  315  ARG315     -0.1963
    138  CA        53.0900   30.7080   23.2000 C.3   315  ARG315      0.1729
    139  C         54.1630   31.5380   23.8930 C.2   315  ARG315      0.2616
    140  O         54.4380   31.3130   25.0740 O.2   315  ARG315     -0.2715
    141  CB        53.7050   29.5570   22.3880 C.3   315  ARG315      0.0348
    142  CG        52.6730   28.4540   22.1330 C.3   315  ARG315      0.0492
    143  CD        53.1410   27.4590   21.1060 C.3   315  ARG315      0.2205
    144  NE        53.4370   28.1100   19.8340 N.pl3 315  ARG315     -0.0865
    145  CZ        54.0720   27.5110   18.8340 C.cat 315  ARG315      0.5346
    146  NH1       54.4700   26.2520   18.9740 N.pl3 315  ARG315      0.1354
    147  NH2       54.3150   28.1650   17.7020 N.pl3 315  ARG315      0.1354
    148  N         54.7600   32.5040   23.1980 N.am  316  LEU316     -0.1977
    149  CA        55.7800   33.3240   23.8390 C.3   316  LEU316      0.1596
    150  C         55.1850   34.2160   24.9250 C.2   316  LEU316      0.2287
    151  O         55.8720   34.5650   25.8790 O.2   316  LEU316     -0.2864
    152  CB        56.5330   34.1810   22.8040 C.3   316  LEU316      0.0297
    153  CG        57.5050   33.4250   21.8840 C.3   316  LEU316      0.0022
    154  CD1       58.0810   34.3660   20.8210 C.3   316  LEU316      0.0001
    155  CD2       58.6270   32.8360   22.7220 C.3   316  LEU316      0.0001
    156  N         52.7320   33.2990   26.8110 N.3   318  ILE318     -0.1245
    157  CA        52.4440   32.3890   27.9120 C.3   318  ILE318      0.1561
    158  C         53.6610   32.3640   28.8350 C.2   318  ILE318      0.2260
    159  O         53.5230   32.4700   30.0530 O.2   318  ILE318     -0.2867
    160  CB        52.1670   30.9560   27.4060 C.3   318  ILE318      0.0252
    161  CG1       50.7710   30.8920   26.7740 C.3   318  ILE318      0.0019
    162  CG2       52.2900   29.9470   28.5610 C.3   318  ILE318      0.0019
    163  CD1       50.3780   29.5120   26.3000 C.3   318  ILE318      0.0001
    164  N         50.3100   24.0360   29.4150 N.3   341  PHE341     -0.1227
    165  CA        49.4540   24.9860   28.7100 C.3   341  PHE341      0.1736
    166  C         48.0030   24.7930   29.1510 C.2   341  PHE341      0.2595
    167  O         47.2850   25.7540   29.4150 O.2   341  PHE341     -0.2718
    168  CB        49.5000   24.7490   27.1960 C.3   341  PHE341      0.0547
    169  CG        50.7170   25.3110   26.5090 C.ar  341  PHE341     -0.0202
    170  CD1       51.6830   26.0310   27.2130 C.ar  341  PHE341     -0.0042
    171  CD2       50.8910   25.1140   25.1340 C.ar  341  PHE341     -0.0042
    172  CE1       52.8070   26.5460   26.5570 C.ar  341  PHE341     -0.0003
    173  CE2       52.0080   25.6230   24.4670 C.ar  341  PHE341     -0.0003
    174  CZ        52.9700   26.3390   25.1780 C.ar  341  PHE341     -0.0000
    175  N         47.5840   23.5350   29.2410 N.am  342  TYR342     -0.1976
    176  CA        46.2000   23.2150   29.5620 C.3   342  TYR342      0.1639
    177  C         45.9630   22.5290   30.8930 C.2   342  TYR342      0.2290
    178  O         44.8670   22.0280   31.1320 O.2   342  TYR342     -0.2864
    179  CB        45.6230   22.3370   28.4470 C.3   342  TYR342      0.0560
    180  CG        45.7570   22.9350   27.0670 C.ar  342  TYR342     -0.0198
    181  CD1       44.9340   23.9880   26.6640 C.ar  342  TYR342     -0.0009
    182  CD2       46.6750   22.4180   26.1430 C.ar  342  TYR342     -0.0009
    183  CE1       45.0080   24.5080   25.3690 C.ar  342  TYR342      0.0417
    184  CE2       46.7610   22.9350   24.8420 C.ar  342  TYR342      0.0417
    185  CZ        45.9180   23.9750   24.4650 C.ar  342  TYR342      0.1957
    186  OH        45.9480   24.4700   23.1770 O.3   342  TYR342     -0.2866
@<TRIPOS>BOND
     1    87    86    2
     2   115   114    1
     3    86    85    1
     4    84    85    1
     5   114   113   ar
     6   114   112   ar
     7    85    88    1
     8   113   111   ar
     9   112   110   ar
    10    88    89    1
    11    88    90    1
    12    99    98    2
    13    94    93    2
    14   111   109   ar
    15    75    76    2
    16    75    74    1
    17    91    92    1
    18   110   109   ar
    19   109   108    1
    20    98    97    1
    21    98   100   am
    22    63    64    1
    23    93    92    1
    24    93    96   am
    25    74    73    1
    26    74    77    1
    27   103   102    2
    28    97    96    1
    29    64    65    1
    30    64    67    1
    31    92    95    1
    32    65    66    2
    33   102   101    1
    34   102   104   am
    35   101   100    1
    36    70    72   ar
    37    70    68   ar
    38    78    77    1
    39    78    79    1
    40   105   108    1
    41   105   104    1
    42   105   106    1
    43    72    71   ar
    44    68    67    1
    45    68    69   ar
    46   106   107    2
    47    55    56    2
    48    55    54    1
    49    80    79    1
    50    80    81    2
    51    71    69   ar
    52   132   131    1
    53    83    81    1
    54   116   117    1
    55    81    82    1
    56    59    61   ar
    57    59    58   ar
    58    54    53    1
    59    54    57    1
    60   119   118    2
    61    61    62   ar
    62   147   145    1
    63   131   129   ar
    64   131   130   ar
    65   120   117    1
    66   117   118    1
    67   129   127   ar
    68   118   121   am
    69   130   128   ar
    70    58    57    1
    71    58    60   ar
    72   145   146    1
    73   145   144    2
    74    62    60   ar
    75   127   126   ar
    76   128   126   ar
    77    52    50   am
    78   121   122    1
    79   126   125    1
    80   144   143    1
    81   122   125    1
    82   122   123    1
    83    12    11    1
    84    12     6    1
    85     5     2    1
    86    11    10    1
    87    50    49    1
    88    50    51    2
    89   154   153    1
    90    49    48    1
    91   133   123   am
    92   133   134    1
    93   143   142    1
    94   123   124    2
    95     2     1    1
    96     2     3    1
    97    10     7    1
    98   153   155    1
    99   153   152    1
   100     6     3   am
   101     6     7    1
   102   134   135    1
   103   142   141    1
   104     9     8    2
   105    48    45    1
   106   137   135   am
   107   137   138    1
   108     3     4    2
   109   141   138    1
   110    45    46    1
   111    45    44    1
   112     7     8    1
   113   152   149    1
   114   135   136    2
   115    46    47    2
   116     8    13   am
   117   186   185    1
   118   148   149    1
   119   148   139   am
   120   138   139    1
   121    20    18    1
   122    43    40    1
   123   149   150    1
   124   139   140    2
   125    40    39    1
   126    40    41    1
   127    13    14    1
   128    18    19    1
   129    18    17    1
   130   185   184   ar
   131   185   183   ar
   132   173   171   ar
   133   173   174   ar
   134    14    17    1
   135    14    15    1
   136   184   182   ar
   137    26    25    1
   138   150   151    2
   139   171   169   ar
   140   174   172   ar
   141   183   181   ar
   142    21    15   am
   143    21    22    1
   144    41    42    2
   145    25    22    1
   146    25    27    1
   147    15    16    2
   148   182   180   ar
   149   163   161    1
   150    22    23    1
   151   169   168    1
   152   169   170   ar
   153   172   170   ar
   154   181   180   ar
   155   161   160    1
   156   156   157    1
   157    24    23    2
   158   180   179    1
   159   168   165    1
   160    23    28   am
   161   160   157    1
   162   160   162    1
   163   157   158    1
   164   179   176    1
   165    34    35    1
   166    34    33    1
   167    28    29    1
   168   165   166    1
   169   165   164    1
   170   158   159    2
   171   166   175   am
   172   166   167    2
   173   175   176    1
   174    35    36    2
   175    33    32    1
   176   176   177    1
   177    29    32    1
   178    29    30    1
   179    36    37    1
   180    36    38    1
   181    30    31    2
   182   177   178    2
