@<TRIPOS>MOLECULE
tmp/1icpB01.pdb
 213 205 0 0 0
SMALL
GASTEIGER

@<TRIPOS>ATOM
      1  N         43.2120   29.6120   25.4770 N.3    28  THR28      -0.1218
      2  CA        42.4510   28.7650   26.3960 C.3    28  THR28       0.1862
      3  C         43.4560   28.0930   27.3380 C.2    28  THR28       0.2287
      4  O         44.3900   27.4220   26.8860 O.2    28  THR28      -0.2866
      5  CB        41.6600   27.6930   25.6150 C.3    28  THR28       0.1770
      6  OG1       40.5730   28.3200   24.9230 O.3    28  THR28      -0.2211
      7  CG2       41.1100   26.6180   26.5520 C.3    28  THR28       0.0375
      8  N         42.1950   26.5210   30.3660 N.3    30  GLN30      -0.1245
      9  CA        41.3740   25.6180   31.1730 C.3    30  GLN30       0.1566
     10  C         41.6050   25.6740   32.6810 C.2    30  GLN30       0.2260
     11  O         41.8150   24.6400   33.3250 O.2    30  GLN30      -0.2867
     12  CB        41.5490   24.1780   30.6910 C.3    30  GLN30       0.0367
     13  CG        41.1680   23.9910   29.2280 C.3    30  GLN30       0.0905
     14  CD        41.1560   22.5500   28.8010 C.2    30  GLN30       0.2608
     15  OE1       40.2320   21.7940   29.1300 O.2    30  GLN30      -0.2717
     16  NE2       42.1850   22.1470   28.0710 N.am   30  GLN30      -0.0878
     17  N         39.1830   32.0050   24.8730 N.3    59  ALA59      -0.1245
     18  CA        37.8590   31.7110   24.3290 C.3    59  ALA59       0.1562
     19  C         36.8450   31.6350   25.4780 C.2    59  ALA59       0.2260
     20  O         37.0340   30.8920   26.4450 O.2    59  ALA59      -0.2867
     21  CB        37.8940   30.4070   23.5500 C.3    59  ALA59       0.0290
     22  N         32.6030   22.4700   25.3090 N.3    68  GLY68      -0.1210
     23  CA        33.1710   21.2690   24.7280 C.3    68  GLY68       0.1956
     24  C         34.4320   20.8710   25.4770 C.2    68  GLY68       0.2612
     25  O         35.1070   19.9170   25.1120 O.2    68  GLY68      -0.2717
     26  N         34.7450   21.6020   26.5400 N.am   69  TYR69      -0.1962
     27  CA        35.9480   21.3370   27.3150 C.3    69  TYR69       0.1771
     28  C         35.7080   21.7600   28.7460 C.2    69  TYR69       0.2619
     29  O         34.9280   22.6780   29.0110 O.2    69  TYR69      -0.2715
     30  CB        37.1250   22.1500   26.7670 C.3    69  TYR69       0.0574
     31  CG        37.3920   21.9600   25.2950 C.ar   69  TYR69      -0.0198
     32  CD1       38.2640   20.9670   24.8410 C.ar   69  TYR69      -0.0009
     33  CD2       36.7680   22.7760   24.3500 C.ar   69  TYR69      -0.0009
     34  CE1       38.5100   20.7960   23.4670 C.ar   69  TYR69       0.0417
     35  CE2       37.0020   22.6160   22.9880 C.ar   69  TYR69       0.0417
     36  CZ        37.8730   21.6300   22.5500 C.ar   69  TYR69       0.1957
     37  OH        38.1010   21.5060   21.1950 O.3    69  TYR69      -0.2866
     38  N         36.3860   21.1090   29.6790 N.am   70  LYS70      -0.1977
     39  CA        36.1970   21.4960   31.0620 C.3    70  LYS70       0.1596
     40  C         37.0480   22.6850   31.4620 C.2    70  LYS70       0.2287
     41  O         38.0970   22.9590   30.8760 O.2    70  LYS70      -0.2864
     42  CB        36.4780   20.3290   32.0120 C.3    70  LYS70       0.0298
     43  CG        37.8090   19.6410   31.8090 C.3    70  LYS70       0.0038
     44  CD        38.2130   18.8760   33.0730 C.3    70  LYS70       0.0206
     45  CE        37.0520   18.0860   33.6750 C.3    70  LYS70       0.1093
     46  NZ        36.5320   17.0350   32.7590 N.3    70  LYS70      -0.1314
     47  N         32.8280   32.6130   22.0990 N.3   103  TRP103     -0.1241
     48  CA        32.9000   31.3050   21.4630 C.3   103  TRP103      0.1605
     49  C         31.7710   30.2920   21.6990 C.2   103  TRP103      0.2264
     50  O         31.1080   30.2970   22.7420 O.2   103  TRP103     -0.2867
     51  CB        34.2500   30.7590   21.9640 C.3   103  TRP103      0.0550
     52  CG        34.6590   29.3280   21.7780 C.ar  103  TRP103      0.0003
     53  CD1       34.7830   28.6500   20.6000 C.ar  103  TRP103      0.0946
     54  CD2       35.2590   28.4940   22.7830 C.ar  103  TRP103      0.0152
     55  NE1       35.4430   27.4530   20.8050 N.ar  103  TRP103     -0.2442
     56  CE2       35.7460   27.3360   22.1360 C.ar  103  TRP103      0.0810
     57  CE3       35.4450   28.6220   24.1690 C.ar  103  TRP103      0.0012
     58  CZ2       36.4140   26.3080   22.8290 C.ar  103  TRP103      0.0191
     59  CZ3       36.1090   27.6070   24.8580 C.ar  103  TRP103      0.0001
     60  CH2       36.5880   26.4640   24.1840 C.ar  103  TRP103      0.0015
     61  N         28.6110   17.1750   28.1080 N.3   113  PHE113     -0.1241
     62  CA        28.9190   18.5820   28.3690 C.3   113  PHE113      0.1605
     63  C         27.6470   19.3960   28.1460 C.2   113  PHE113      0.2264
     64  O         27.5500   20.5430   28.5640 O.2   113  PHE113     -0.2867
     65  CB        29.9990   19.1100   27.4000 C.3   113  PHE113      0.0534
     66  CG        31.4190   18.7790   27.8010 C.ar  113  PHE113     -0.0203
     67  CD1       31.9540   19.2610   28.9910 C.ar  113  PHE113     -0.0042
     68  CD2       32.2280   18.0060   26.9690 C.ar  113  PHE113     -0.0042
     69  CE1       33.2770   18.9850   29.3540 C.ar  113  PHE113     -0.0003
     70  CE2       33.5560   17.7190   27.3190 C.ar  113  PHE113     -0.0003
     71  CZ        34.0820   18.2090   28.5140 C.ar  113  PHE113     -0.0000
     72  N         39.8340   12.2510   19.3780 N.3   131  GLN131     -0.1231
     73  CA        41.0420   13.0670   19.4580 C.3   131  GLN131      0.1698
     74  C         41.6890   12.8120   20.8170 C.2   131  GLN131      0.2592
     75  O         40.9940   12.4950   21.7860 O.2   131  GLN131     -0.2718
     76  CB        40.7010   14.5660   19.3720 C.3   131  GLN131      0.0381
     77  CG        40.0790   15.0710   18.0530 C.3   131  GLN131      0.0905
     78  CD        39.7450   16.5700   18.1020 C.2   131  GLN131      0.2608
     79  OE1       40.1630   17.2810   19.0230 O.2   131  GLN131     -0.2717
     80  NE2       38.9990   17.0530   17.1050 N.am  131  GLN131     -0.0878
     81  N         43.0090   12.9530   20.8910 N.am  132  ILE132     -0.1966
     82  CA        43.7250   12.7760   22.1520 C.3   132  ILE132      0.1727
     83  C         43.5590   14.0750   22.9310 C.2   132  ILE132      0.2616
     84  O         43.8020   15.1440   22.3890 O.2   132  ILE132     -0.2715
     85  CB        45.2270   12.5320   21.9160 C.3   132  ILE132      0.0290
     86  CG1       45.4290   11.1900   21.2080 C.3   132  ILE132      0.0022
     87  CG2       45.9730   12.5630   23.2370 C.3   132  ILE132      0.0023
     88  CD1       46.8770   10.9030   20.8510 C.3   132  ILE132      0.0001
     89  N         43.1370   13.9900   24.1880 N.am  133  MET133     -0.1963
     90  CA        42.9380   15.1870   25.0010 C.3   133  MET133      0.1736
     91  C         44.2510   15.9160   25.2920 C.2   133  MET133      0.2617
     92  O         45.3340   15.3860   25.0280 O.2   133  MET133     -0.2715
     93  CB        42.2310   14.8140   26.3080 C.3   133  MET133      0.0427
     94  CG        40.8290   14.2720   26.0870 C.3   133  MET133      0.0599
     95  SD        39.9340   13.9080   27.5980 S.3   133  MET133     -0.1393
     96  CE        39.8440   15.5470   28.3150 C.3   133  MET133      0.0692
     97  N         44.1550   17.1300   25.8330 N.am  134  SER134     -0.1950
     98  CA        45.3490   17.9190   26.1460 C.3   134  SER134      0.1924
     99  C         46.3380   17.2010   27.0640 C.2   134  SER134      0.2314
    100  O         47.5520   17.3260   26.8910 O.2   134  SER134     -0.2863
    101  CB        44.9590   19.2770   26.7540 C.3   134  SER134      0.2116
    102  OG        43.7330   19.2190   27.4780 O.3   134  SER134     -0.2180
    103  N         39.4030   11.6890   23.7240 N.3   140  ALA140     -0.1245
    104  CA        38.1200   12.3750   23.7760 C.3   140  ALA140      0.1562
    105  C         37.2160   11.8370   22.6650 C.2   140  ALA140      0.2260
    106  O         37.6450   11.6780   21.5180 O.2   140  ALA140     -0.2867
    107  CB        38.3200   13.8750   23.6020 C.3   140  ALA140      0.0290
    108  N         33.4640   12.3100   20.6430 N.3   142  PHE142     -0.1241
    109  CA        32.5170   13.3810   20.3670 C.3   142  PHE142      0.1605
    110  C         31.1520   12.8600   19.9510 C.2   142  PHE142      0.2264
    111  O         31.0390   11.8820   19.2160 O.2   142  PHE142     -0.2867
    112  CB        33.0770   14.3060   19.2770 C.3   142  PHE142      0.0534
    113  CG        34.4330   14.8730   19.6030 C.ar  142  PHE142     -0.0203
    114  CD1       35.6000   14.2010   19.2180 C.ar  142  PHE142     -0.0042
    115  CD2       34.5510   16.0660   20.3150 C.ar  142  PHE142     -0.0042
    116  CE1       36.8600   14.7150   19.5420 C.ar  142  PHE142     -0.0003
    117  CE2       35.8150   16.5910   20.6450 C.ar  142  PHE142     -0.0003
    118  CZ        36.9690   15.9070   20.2530 C.ar  142  PHE142     -0.0000
    119  N         34.7670   34.4850   17.7750 N.3   178  HIS178     -0.1241
    120  CA        35.5820   33.3200   17.4440 C.3   178  HIS178      0.1621
    121  C         35.0600   32.5980   16.1930 C.2   178  HIS178      0.2264
    122  O         34.2240   31.6980   16.2820 O.2   178  HIS178     -0.2867
    123  CB        35.6110   32.3330   18.6200 C.3   178  HIS178      0.0745
    124  CG        36.7190   31.3310   18.5320 C.ar  178  HIS178      0.0817
    125  ND1       37.2630   30.9250   17.3290 N.ar  178  HIS178     -0.2268
    126  CD2       37.3920   30.6590   19.4950 C.ar  178  HIS178      0.1154
    127  CE1       38.2240   30.0490   17.5580 C.ar  178  HIS178      0.1986
    128  NE2       38.3230   29.8690   18.8630 N.ar  178  HIS178     -0.2212
    129  N         39.1960   27.8970   13.7930 N.3   181  HIS181     -0.1241
    130  CA        39.4950   26.5560   14.2740 C.3   181  HIS181      0.1621
    131  C         38.4250   25.4750   14.3440 C.2   181  HIS181      0.2264
    132  O         38.4110   24.6600   15.2750 O.2   181  HIS181     -0.2867
    133  CB        40.1730   26.6950   15.6460 C.3   181  HIS181      0.0745
    134  CG        41.3650   27.6010   15.6300 C.ar  181  HIS181      0.0817
    135  ND1       41.5500   28.6110   16.5520 N.ar  181  HIS181     -0.2268
    136  CD2       42.4330   27.6490   14.8000 C.ar  181  HIS181      0.1154
    137  CE1       42.6810   29.2390   16.2890 C.ar  181  HIS181      0.1986
    138  NE2       43.2360   28.6740   15.2300 N.ar  181  HIS181     -0.2212
    139  N         35.2950   25.6450   15.0400 N.3   183  TYR183     -0.1241
    140  CA        34.2210   25.7550   16.0120 C.3   183  TYR183      0.1605
    141  C         32.9200   26.1280   15.2960 C.2   183  TYR183      0.2264
    142  O         32.8840   26.1150   14.0690 O.2   183  TYR183     -0.2867
    143  CB        34.6360   26.6950   17.1400 C.3   183  TYR183      0.0534
    144  CG        35.7480   26.0320   17.9500 C.ar  183  TYR183     -0.0201
    145  CD1       35.5130   24.8290   18.6280 C.ar  183  TYR183     -0.0009
    146  CD2       37.0460   26.5480   17.9600 C.ar  183  TYR183     -0.0009
    147  CE1       36.5460   24.1520   19.2870 C.ar  183  TYR183      0.0417
    148  CE2       38.0860   25.8790   18.6200 C.ar  183  TYR183      0.0417
    149  CZ        37.8260   24.6830   19.2750 C.ar  183  TYR183      0.1957
    150  OH        38.8510   24.0000   19.8920 O.3   183  TYR183     -0.2866
    151  N         41.9420   22.4120   11.5760 N.3   237  TYR237     -0.1241
    152  CA        41.6730   22.0650   12.9710 C.3   237  TYR237      0.1605
    153  C         40.2230   21.5950   13.1460 C.2   237  TYR237      0.2264
    154  O         39.2950   22.1980   12.6040 O.2   237  TYR237     -0.2867
    155  CB        41.9490   23.2840   13.8590 C.3   237  TYR237      0.0534
    156  CG        42.2980   22.9340   15.2850 C.ar  237  TYR237     -0.0201
    157  CD1       43.5550   22.4170   15.6080 C.ar  237  TYR237     -0.0009
    158  CD2       41.3670   23.1050   16.3150 C.ar  237  TYR237     -0.0009
    159  CE1       43.8810   22.0810   16.9250 C.ar  237  TYR237      0.0417
    160  CE2       41.6780   22.7720   17.6380 C.ar  237  TYR237      0.0417
    161  CZ        42.9350   22.2640   17.9350 C.ar  237  TYR237      0.1957
    162  OH        43.2630   21.9650   19.2340 O.3   237  TYR237     -0.2866
    163  N         49.4030   26.8400    8.6040 N.3   270  ARG270     -0.1245
    164  CA        50.3170   26.0800    9.4530 C.3   270  ARG270      0.1563
    165  C         51.6880   25.9000    8.8050 C.2   270  ARG270      0.2260
    166  O         52.7070   26.2300    9.4080 O.2   270  ARG270     -0.2867
    167  CB        49.7220   24.7090    9.7730 C.3   270  ARG270      0.0307
    168  CG        50.3130   24.0220   11.0060 C.3   270  ARG270      0.0489
    169  CD        49.5580   22.7210   11.2890 C.3   270  ARG270      0.2205
    170  NE        49.6790   22.2590   12.6720 N.pl3 270  ARG270     -0.0865
    171  CZ        50.7780   21.7320   13.2050 C.cat 270  ARG270      0.5346
    172  NH1       51.8790   21.5910   12.4760 N.pl3 270  ARG270      0.1354
    173  NH2       50.7730   21.3310   14.4720 N.pl3 270  ARG270      0.1354
    174  N         54.7630   26.8240    6.9780 N.3   272  LYS272     -0.1245
    175  CA        55.4160   28.0800    6.6370 C.3   272  LYS272      0.1561
    176  C         56.1450   28.0290    5.2990 C.2   272  LYS272      0.2260
    177  O         56.6330   26.9800    4.8760 O.2   272  LYS272     -0.2867
    178  CB        56.3830   28.5000    7.7520 C.3   272  LYS272      0.0271
    179  CG        55.6950   29.1270    8.9640 C.3   272  LYS272      0.0035
    180  CD        54.8180   28.1220    9.7020 C.3   272  LYS272      0.0206
    181  CE        54.0020   28.7770   10.8130 C.3   272  LYS272      0.1093
    182  NZ        53.0170   29.7650   10.2800 N.3   272  LYS272     -0.1314
    183  N         50.3520   33.3070   14.5050 N.3   292  GLY292     -0.1210
    184  CA        50.7490   31.9720   14.0990 C.3   292  GLY292      0.1956
    185  C         52.2180   31.8000   13.7870 C.2   292  GLY292      0.2612
    186  O         52.6360   32.0520   12.6650 O.2   292  GLY292     -0.2717
    187  N         52.9930   31.3850   14.7880 N.am  293  GLY293     -0.1956
    188  CA        54.4140   31.1410   14.5950 C.3   293  GLY293      0.1869
    189  C         55.3550   32.3310   14.5590 C.2   293  GLY293      0.2309
    190  O         56.4760   32.2020   14.0780 O.2   293  GLY293     -0.2863
    191  N         52.1200   31.4200   22.3710 N.3   315  ARG315     -0.1245
    192  CA        53.0900   30.7080   23.2000 C.3   315  ARG315      0.1563
    193  C         54.1630   31.5380   23.8930 C.2   315  ARG315      0.2260
    194  O         54.4380   31.3130   25.0740 O.2   315  ARG315     -0.2867
    195  CB        53.7050   29.5570   22.3880 C.3   315  ARG315      0.0307
    196  CG        52.6730   28.4540   22.1330 C.3   315  ARG315      0.0489
    197  CD        53.1410   27.4590   21.1060 C.3   315  ARG315      0.2205
    198  NE        53.4370   28.1100   19.8340 N.pl3 315  ARG315     -0.0865
    199  CZ        54.0720   27.5110   18.8340 C.cat 315  ARG315      0.5346
    200  NH1       54.4700   26.2520   18.9740 N.pl3 315  ARG315      0.1354
    201  NH2       54.3150   28.1650   17.7020 N.pl3 315  ARG315      0.1354
    202  N         47.5840   23.5350   29.2410 N.3   342  TYR342     -0.1241
    203  CA        46.2000   23.2150   29.5620 C.3   342  TYR342      0.1605
    204  C         45.9630   22.5290   30.8930 C.2   342  TYR342      0.2264
    205  O         44.8670   22.0280   31.1320 O.2   342  TYR342     -0.2867
    206  CB        45.6230   22.3370   28.4470 C.3   342  TYR342      0.0534
    207  CG        45.7570   22.9350   27.0670 C.ar  342  TYR342     -0.0201
    208  CD1       44.9340   23.9880   26.6640 C.ar  342  TYR342     -0.0009
    209  CD2       46.6750   22.4180   26.1430 C.ar  342  TYR342     -0.0009
    210  CE1       45.0080   24.5080   25.3690 C.ar  342  TYR342      0.0417
    211  CE2       46.7610   22.9350   24.8420 C.ar  342  TYR342      0.0417
    212  CZ        45.9180   23.9750   24.4650 C.ar  342  TYR342      0.1957
    213  OH        45.9480   24.4700   23.1770 O.3   342  TYR342     -0.2866
@<TRIPOS>BOND
     1   177   176    2
     2   176   175    1
     3   175   174    1
     4   175   178    1
     5   178   179    1
     6   163   164    1
     7   165   166    2
     8   165   164    1
     9   179   180    1
    10   164   167    1
    11   180   181    1
    12   167   168    1
    13   182   181    1
    14   168   169    1
    15   169   170    1
    16   151   152    1
    17   172   171    1
    18   154   153    2
    19   186   185    2
    20   170   171    2
    21   152   153    1
    22   152   155    1
    23   171   173    1
    24   185   184    1
    25   185   187   am
    26   129   130    1
    27   155   156    1
    28   142   141    2
    29   190   189    2
    30   184   183    1
    31   130   131    1
    32   130   133    1
    33   131   132    2
    34   189   188    1
    35   188   187    1
    36   136   138   ar
    37   136   134   ar
    38   139   140    1
    39   138   137   ar
    40   156   157   ar
    41   156   158   ar
    42   141   140    1
    43   157   159   ar
    44   134   133    1
    45   134   135   ar
    46   140   143    1
    47   121   122    2
    48   121   120    1
    49   137   135   ar
    50   158   160   ar
    51   159   161   ar
    52    80    78   am
    53   143   144    1
    54   125   127   ar
    55   125   124   ar
    56   120   119    1
    57   120   123    1
    58   127   128   ar
    59   160   161   ar
    60   201   199    1
    61   161   162    1
    62   144   146   ar
    63   144   145   ar
    64   146   148   ar
    65    77    78    1
    66    77    76    1
    67    78    79    2
    68   124   123    1
    69   124   126   ar
    70   148   149   ar
    71   145   147   ar
    72   199   200    1
    73   199   198    2
    74   128   126   ar
    75   111   110    2
    76   114   116   ar
    77   114   113   ar
    78   149   147   ar
    79   149   150    1
    80   112   113    1
    81   112   109    1
    82    76    73    1
    83    72    73    1
    84    73    74    1
    85   116   118   ar
    86   113   115   ar
    87   198   197    1
    88   110   109    1
    89   118   117   ar
    90   115   117   ar
    91   109   108    1
    92    53    55   ar
    93    53    52   ar
    94    55    56   ar
    95    74    81   am
    96    74    75    2
    97    88    86    1
    98    81    82    1
    99   197   196    1
   100    37    36    1
   101    86    85    1
   102    48    49    1
   103    48    51    1
   104    48    47    1
   105   106   105    2
   106    49    50    2
   107    52    51    1
   108    52    54   ar
   109    85    82    1
   110    85    87    1
   111   196   195    1
   112    56    54   ar
   113    56    58   ar
   114    82    83    1
   115   191   192    1
   116   195   192    1
   117    84    83    2
   118    36    35   ar
   119    36    34   ar
   120   105   104    1
   121    54    57   ar
   122    58    60   ar
   123    83    89   am
   124    35    33   ar
   125   213   212    1
   126   192   193    1
   127    34    32   ar
   128    21    18    1
   129   107   104    1
   130   103   104    1
   131   193   194    2
   132    57    59   ar
   133    60    59   ar
   134    89    90    1
   135    18    17    1
   136    18    19    1
   137    33    31   ar
   138   212   211   ar
   139   212   210   ar
   140    23    22    1
   141    23    24    1
   142    32    31   ar
   143   211   209   ar
   144     6     5    1
   145    90    91    1
   146    90    93    1
   147    92    91    2
   148    25    24    2
   149    91    97   am
   150    31    30    1
   151   210   208   ar
   152     1     2    1
   153    24    26   am
   154    19    20    2
   155     5     2    1
   156     5     7    1
   157    97    98    1
   158    94    93    1
   159    94    95    1
   160   209   207   ar
   161    98   101    1
   162    98    99    1
   163     2     3    1
   164    26    27    1
   165   208   207   ar
   166   101   102    1
   167    30    27    1
   168     4     3    2
   169   100    99    2
   170    68    70   ar
   171    68    66   ar
   172   207   206    1
   173    27    28    1
   174    70    71   ar
   175    65    66    1
   176    65    62    1
   177    95    96    1
   178    66    67   ar
   179    16    14   am
   180    61    62    1
   181    63    62    1
   182    63    64    2
   183   206   203    1
   184    71    69   ar
   185    28    29    2
   186    28    38   am
   187    14    15    2
   188    14    13    1
   189    67    69   ar
   190    13    12    1
   191   202   203    1
   192   203   204    1
   193    38    39    1
   194     8     9    1
   195    12     9    1
   196    41    40    2
   197   204   205    2
   198    39    40    1
   199    39    42    1
   200     9    10    1
   201    43    42    1
   202    43    44    1
   203    10    11    2
   204    46    45    1
   205    44    45    1
