@<TRIPOS>MOLECULE
tmp/1icqA01.pdb
 134 130 0 0 0
SMALL
GASTEIGER

@<TRIPOS>ATOM
      1  N         -3.9000   -3.9190    5.5330 N.3    27  THR27      -0.1218
      2  CA        -3.3600   -4.3240    6.8270 C.3    27  THR27       0.1862
      3  C         -4.5170   -4.9020    7.6340 C.2    27  THR27       0.2287
      4  O         -5.5530   -4.2470    7.8260 O.2    27  THR27      -0.2866
      5  CB        -2.7580   -3.1250    7.5620 C.3    27  THR27       0.1770
      6  OG1       -1.5920   -2.6950    6.8610 O.3    27  THR27      -0.2211
      7  CG2       -2.3720   -3.4880    9.0010 C.3    27  THR27       0.0375
      8  N         -3.7000   -6.8990   10.5930 N.3    29  GLN29      -0.1245
      9  CA        -3.1620   -7.1600   11.9230 C.3    29  GLN29       0.1566
     10  C         -3.3370   -8.5790   12.4590 C.2    29  GLN29       0.2260
     11  O         -3.5940   -8.7810   13.6510 O.2    29  GLN29      -0.2867
     12  CB        -3.7500   -6.1620   12.9280 C.3    29  GLN29       0.0367
     13  CG        -3.3870   -4.7070   12.6620 C.3    29  GLN29       0.0905
     14  CD        -3.6730   -3.8150   13.8500 C.2    29  GLN29       0.2608
     15  OE1       -2.7600   -3.3430   14.5230 O.2    29  GLN29      -0.2717
     16  NE2       -4.9490   -3.5990   14.1290 N.am   29  GLN29      -0.0878
     17  N          0.5950   -4.0890    3.8660 N.3    58  ALA58      -0.1245
     18  CA         1.8640   -3.4350    4.1600 C.3    58  ALA58       0.1562
     19  C          2.7360   -4.4030    4.9630 C.2    58  ALA58       0.2260
     20  O          2.2830   -4.9930    5.9430 O.2    58  ALA58      -0.2867
     21  CB         1.6220   -2.1870    4.9530 C.3    58  ALA58       0.0290
     22  N          2.5520   -0.9260   14.6200 N.3    68  TYR68      -0.1241
     23  CA         1.3170   -1.6310   14.9100 C.3    68  TYR68       0.1605
     24  C          1.5860   -3.0540   15.3760 C.2    68  TYR68       0.2264
     25  O          2.6710   -3.6010   15.1640 O.2    68  TYR68      -0.2867
     26  CB         0.4600   -1.6820   13.6510 C.3    68  TYR68       0.0534
     27  CG         0.1430   -0.3210   13.0850 C.ar   68  TYR68      -0.0201
     28  CD1       -0.9810    0.3880   13.5100 C.ar   68  TYR68      -0.0009
     29  CD2        0.9620    0.2530   12.1130 C.ar   68  TYR68      -0.0009
     30  CE1       -1.2860    1.6310   12.9700 C.ar   68  TYR68       0.0417
     31  CE2        0.6690    1.4920   11.5750 C.ar   68  TYR68       0.0417
     32  CZ        -0.4600    2.1720   12.0010 C.ar   68  TYR68       0.1957
     33  OH        -0.7880    3.3610   11.4130 O.3    68  TYR68      -0.2866
     34  N          3.8240   -5.4330   -0.5390 N.3   100  GLN100     -0.1245
     35  CA         3.9860   -4.0000   -0.2770 C.3   100  GLN100      0.1566
     36  C          4.9800   -3.8240    0.8700 C.2   100  GLN100      0.2260
     37  O          4.7290   -4.2720    1.9930 O.2   100  GLN100     -0.2867
     38  CB         2.6590   -3.3170    0.0740 C.3   100  GLN100      0.0367
     39  CG         2.8040   -1.8010    0.2350 C.3   100  GLN100      0.0905
     40  CD         1.4970   -1.1000    0.6420 C.2   100  GLN100      0.2608
     41  OE1        0.9420   -1.3630    1.7170 O.2   100  GLN100     -0.2717
     42  NE2        1.0080   -0.2190   -0.2150 N.am  100  GLN100     -0.0878
     43  N          6.9980   -1.6680    3.5710 N.3   102  TRP102     -0.1241
     44  CA         6.6400   -0.5320    4.3930 C.3   102  TRP102      0.1605
     45  C          7.4690   -0.2070    5.6140 C.2   102  TRP102      0.2264
     46  O          8.0400   -1.0940    6.2460 O.2   102  TRP102     -0.2867
     47  CB         5.1990   -0.8420    4.8110 C.3   102  TRP102      0.0550
     48  CG         4.5080   -0.0450    5.8520 C.ar  102  TRP102      0.0003
     49  CD1        4.2640    1.3030    5.8320 C.ar  102  TRP102      0.0946
     50  CD2        3.6730   -0.5840    6.8880 C.ar  102  TRP102      0.0152
     51  NE1        3.3070    1.6280    6.7660 N.ar  102  TRP102     -0.2442
     52  CE2        2.9270    0.4900    7.4280 C.ar  102  TRP102      0.0810
     53  CE3        3.4700   -1.8810    7.4000 C.ar  102  TRP102      0.0012
     54  CZ2        1.9860    0.3120    8.4540 C.ar  102  TRP102      0.0191
     55  CZ3        2.5270   -2.0620    8.4220 C.ar  102  TRP102      0.0001
     56  CH2        1.7970   -0.9680    8.9350 C.ar  102  TRP102      0.0015
     57  N         -8.2700    5.1000   18.2650 N.3   132  MET132     -0.1230
     58  CA        -8.1230    3.8580   17.5250 C.3   132  MET132      0.1702
     59  C         -9.4480    3.3800   16.9640 C.2   132  MET132      0.2593
     60  O        -10.5170    3.7670   17.4440 O.2   132  MET132     -0.2718
     61  CB        -7.5050    2.8100   18.4290 C.3   132  MET132      0.0401
     62  CG        -6.1320    3.2460   18.8840 C.3   132  MET132      0.0596
     63  SD        -5.3830    2.1560   20.0560 S.3   132  MET132     -0.1393
     64  CE        -4.9820    0.7670   19.0030 C.3   132  MET132      0.0692
     65  N         -9.3680    2.5320   15.9460 N.am  133  SER133     -0.1938
     66  CA       -10.5410    2.0250   15.2580 C.3   133  SER133      0.2055
     67  C        -11.6630    1.5160   16.1390 C.2   133  SER133      0.2643
     68  O        -12.7920    1.4170   15.6740 O.2   133  SER133     -0.2714
     69  CB       -10.1410    0.9320   14.2580 C.3   133  SER133      0.2130
     70  OG        -9.6120   -0.2020   14.9120 O.3   133  SER133     -0.2179
     71  N        -11.3810    1.1920   17.3970 N.am  134  ASN134     -0.1971
     72  CA       -12.4470    0.6990   18.2570 C.3   134  ASN134      0.1688
     73  C        -13.2090    1.8400   18.9400 C.2   134  ASN134      0.2292
     74  O        -14.1120    1.6060   19.7370 O.2   134  ASN134     -0.2864
     75  CB       -11.9070   -0.2930   19.3000 C.3   134  ASN134      0.1181
     76  CG       -11.0810    0.3730   20.3760 C.2   134  ASN134      0.2629
     77  OD1      -10.7100   -0.2630   21.3590 O.2   134  ASN134     -0.2716
     78  ND2      -10.7830    1.6520   20.1980 N.am  134  ASN134     -0.0877
     79  N          5.6100    1.3350   -0.4120 N.3   177  HIS177     -0.1241
     80  CA         4.5600    2.0860    0.2740 C.3   177  HIS177      0.1621
     81  C          4.9320    3.5470    0.4470 C.2   177  HIS177      0.2264
     82  O          5.5500    3.9160    1.4320 O.2   177  HIS177     -0.2867
     83  CB         4.2540    1.4780    1.6440 C.3   177  HIS177      0.0745
     84  CG         2.9790    1.9820    2.2430 C.ar  177  HIS177      0.0817
     85  ND1        2.4950    3.2510    1.9950 N.ar  177  HIS177     -0.2268
     86  CD2        2.0780    1.3890    3.0620 C.ar  177  HIS177      0.1154
     87  CE1        1.3500    3.4140    2.6340 C.ar  177  HIS177      0.1986
     88  NE2        1.0760    2.2990    3.2900 N.ar  177  HIS177     -0.2212
     89  N          0.0290    7.5980    2.6920 N.3   180  HIS180     -0.1241
     90  CA        -0.5930    7.7560    4.0090 C.3   180  HIS180      0.1621
     91  C          0.1790    8.2670    5.2070 C.2   180  HIS180      0.2264
     92  O         -0.1030    7.9010    6.3520 O.2   180  HIS180     -0.2867
     93  CB        -1.2700    6.4160    4.3180 C.3   180  HIS180      0.0745
     94  CG        -2.1690    5.9600    3.2100 C.ar  180  HIS180      0.0817
     95  ND1       -2.4220    4.6330    2.9420 N.ar  180  HIS180     -0.2268
     96  CD2       -2.8670    6.6680    2.2880 C.ar  180  HIS180      0.1154
     97  CE1       -3.2330    4.5420    1.9000 C.ar  180  HIS180      0.1986
     98  NE2       -3.5180    5.7620    1.4860 N.ar  180  HIS180     -0.2212
     99  N          3.2370    7.6620    6.0320 N.3   182  TYR182     -0.1241
    100  CA         4.2340    6.7890    6.6290 C.3   182  TYR182      0.1605
    101  C          5.6000    7.3300    6.2680 C.2   182  TYR182      0.2264
    102  O          5.6770    8.4340    5.7160 O.2   182  TYR182     -0.2867
    103  CB         3.9890    5.3370    6.2330 C.3   182  TYR182      0.0534
    104  CG         2.7610    4.8380    6.9580 C.ar  182  TYR182     -0.0201
    105  CD1        2.7220    4.8280    8.3580 C.ar  182  TYR182     -0.0009
    106  CD2        1.5960    4.5130    6.2660 C.ar  182  TYR182     -0.0009
    107  CE1        1.5400    4.5230    9.0530 C.ar  182  TYR182      0.0417
    108  CE2        0.4150    4.2080    6.9520 C.ar  182  TYR182      0.0417
    109  CZ         0.3910    4.2230    8.3420 C.ar  182  TYR182      0.1957
    110  OH        -0.7900    3.9920    9.0110 O.3   182  TYR182     -0.2866
    111  N         -3.8420   11.9790    5.9780 N.3   236  TYR236     -0.1241
    112  CA        -3.7240   10.9570    7.0170 C.3   236  TYR236      0.1605
    113  C         -2.3720   11.0660    7.7360 C.2   236  TYR236      0.2264
    114  O         -1.3270   11.1420    7.0950 O.2   236  TYR236     -0.2867
    115  CB        -3.8810    9.5690    6.3780 C.3   236  TYR236      0.0534
    116  CG        -4.2070    8.4440    7.3400 C.ar  236  TYR236     -0.0201
    117  CD1       -5.4670    8.3450    7.9330 C.ar  236  TYR236     -0.0009
    118  CD2       -3.2550    7.4620    7.6490 C.ar  236  TYR236     -0.0009
    119  CE1       -5.7700    7.2930    8.8090 C.ar  236  TYR236      0.0417
    120  CE2       -3.5470    6.4080    8.5230 C.ar  236  TYR236      0.0417
    121  CZ        -4.8030    6.3300    9.0960 C.ar  236  TYR236      0.1957
    122  OH        -5.1030    5.2850    9.9410 O.3   236  TYR236     -0.2866
    123  N         -9.4840   -4.7320   11.6520 N.3   338  TYR338     -0.1241
    124  CA        -8.2510   -4.8570   12.4030 C.3   338  TYR338      0.1605
    125  C         -8.2520   -5.7490   13.6420 C.2   338  TYR338      0.2264
    126  O         -7.3780   -5.6130   14.4910 O.2   338  TYR338     -0.2867
    127  CB        -7.7930   -3.4490   12.7920 C.3   338  TYR338      0.0534
    128  CG        -7.7660   -2.4840   11.6250 C.ar  338  TYR338     -0.0201
    129  CD1       -6.8860   -2.6830   10.5530 C.ar  338  TYR338     -0.0009
    130  CD2       -8.5940   -1.3570   11.6000 C.ar  338  TYR338     -0.0009
    131  CE1       -6.8210   -1.7760    9.4870 C.ar  338  TYR338      0.0417
    132  CE2       -8.5410   -0.4390   10.5350 C.ar  338  TYR338      0.0417
    133  CZ        -7.6470   -0.6530    9.4870 C.ar  338  TYR338      0.1957
    134  OH        -7.5300    0.2610    8.4570 O.3   338  TYR338     -0.2866
@<TRIPOS>BOND
     1    34    35    1
     2    79    80    1
     3    35    38    1
     4    35    36    1
     5    42    40   am
     6    38    39    1
     7    39    40    1
     8    80    81    1
     9    80    83    1
    10    81    82    2
    11    40    41    2
    12    36    37    2
    13    98    97   ar
    14    98    96   ar
    15    83    84    1
    16    97    95   ar
    17    85    84   ar
    18    85    87   ar
    19    84    86   ar
    20    96    94   ar
    21    87    88   ar
    22    89    90    1
    23    95    94   ar
    24    86    88   ar
    25    94    93    1
    26    43    44    1
    27    17    18    1
    28    90    93    1
    29    90    91    1
    30    18    21    1
    31    18    19    1
    32    44    47    1
    33    44    45    1
    34    47    48    1
    35    19    20    2
    36    91    92    2
    37     1     2    1
    38    45    46    2
    39   102   101    2
    40    49    48   ar
    41    49    51   ar
    42    48    50   ar
    43   111   112    1
    44    99   100    1
    45   103   100    1
    46   103   104    1
    47   106   108   ar
    48   106   104   ar
    49   101   100    1
    50   115   112    1
    51   115   116    1
    52    51    52   ar
    53     2     5    1
    54     2     3    1
    55     6     5    1
    56    50    53   ar
    57    50    52   ar
    58   108   109   ar
    59   104   105   ar
    60   112   113    1
    61   114   113    2
    62   116   118   ar
    63   116   117   ar
    64    53    55   ar
    65    52    54   ar
    66     5     7    1
    67     3     4    2
    68   118   120   ar
    69   117   119   ar
    70   109   110    1
    71   109   107   ar
    72   105   107   ar
    73    55    56   ar
    74    54    56   ar
    75   134   133    1
    76   120   121   ar
    77   119   121   ar
    78   121   122    1
    79   133   131   ar
    80   133   132   ar
    81   131   129   ar
    82   132   130   ar
    83   129   128   ar
    84     8     9    1
    85    33    32    1
    86    31    32   ar
    87    31    29   ar
    88   130   128   ar
    89   128   127    1
    90   123   124    1
    91     9    10    1
    92     9    12    1
    93    32    30   ar
    94    29    27   ar
    95   124   127    1
    96   124   125    1
    97    10    11    2
    98    13    12    1
    99    13    14    1
   100    30    28   ar
   101    27    28   ar
   102    27    26    1
   103   125   126    2
   104    26    23    1
   105    14    16   am
   106    14    15    2
   107    69    70    1
   108    69    66    1
   109    22    23    1
   110    23    24    1
   111    25    24    2
   112    66    65    1
   113    66    67    1
   114    68    67    2
   115    65    59   am
   116    67    71   am
   117    59    60    2
   118    59    58    1
   119    71    72    1
   120    58    57    1
   121    58    61    1
   122    72    73    1
   123    72    75    1
   124    61    62    1
   125    62    63    1
   126    73    74    2
   127    64    63    1
   128    75    76    1
   129    78    76   am
   130    76    77    2
