@<TRIPOS>MOLECULE
tmp/1id0A00.pdb
 160 149 0 0 0
SMALL
GASTEIGER

@<TRIPOS>ATOM
      1  N         38.2840   31.3020   10.2220 N.3    51  ASN51      -0.1225
      2  CA        38.6940   30.8350   11.5460 C.3    51  ASN51       0.1785
      3  C         37.6010   30.0390   12.2390 C.2    51  ASN51       0.2597
      4  O         37.8640   29.0120   12.8760 O.2    51  ASN51      -0.2718
      5  CB        39.1090   31.9920   12.4410 C.3    51  ASN51       0.1169
      6  CG        39.8060   31.5110   13.6900 C.2    51  ASN51       0.2627
      7  OD1       40.9660   31.0960   13.6410 O.2    51  ASN51      -0.2716
      8  ND2       39.1020   31.5330   14.8070 N.am   51  ASN51      -0.0877
      9  N         36.3700   30.4940   12.0890 N.am   52  VAL52      -0.1980
     10  CA        35.2540   29.8150   12.7440 C.3    52  VAL52       0.1595
     11  C         34.9670   28.4740   12.1010 C.2    52  VAL52       0.2287
     12  O         34.6900   27.4950   12.7900 O.2    52  VAL52      -0.2864
     13  CB        34.0010   30.7230   12.7010 C.3    52  VAL52       0.0276
     14  CG1       32.8020   29.9840   13.2570 C.3    52  VAL52       0.0022
     15  CG2       34.2570   31.9710   13.5020 C.3    52  VAL52       0.0022
     16  N         37.1480   26.6320   10.3320 N.3    54  ASP54      -0.1225
     17  CA        38.2400   25.6970   10.5850 C.3    54  ASP54       0.1805
     18  C         38.0590   25.0720   11.9620 C.2    54  ASP54       0.2598
     19  O         38.2740   23.8760   12.1180 O.2    54  ASP54      -0.2718
     20  CB        39.5970   26.3850   10.5120 C.3    54  ASP54       0.1424
     21  CG        40.7230   25.4790   10.9570 C.2    54  ASP54       0.3668
     22  OD1       41.2680   25.7130   12.0550 O.co2  54  ASP54      -0.2456
     23  OD2       41.0470   24.5300   10.2160 O.co2  54  ASP54      -0.2456
     24  N         37.6750   25.8740   12.9520 N.am   55  ASN55      -0.1960
     25  CA        37.4480   25.3440   14.3010 C.3    55  ASN55       0.1819
     26  C         36.3420   24.2830   14.2700 C.2    55  ASN55       0.2621
     27  O         36.4900   23.2010   14.8560 O.2    55  ASN55      -0.2715
     28  CB        37.0440   26.4520   15.2720 C.3    55  ASN55       0.1195
     29  CG        38.2230   27.2280   15.7990 C.2    55  ASN55       0.2630
     30  OD1       38.0970   28.3830   16.2110 O.2    55  ASN55      -0.2716
     31  ND2       39.3710   26.5840   15.8320 N.am   55  ASN55      -0.0877
     32  N         35.2360   24.5720   13.5930 N.am   56  ALA56      -0.1977
     33  CA        34.1490   23.6010   13.5270 C.3    56  ALA56       0.1597
     34  C         34.6370   22.2870   12.9130 C.2    56  ALA56       0.2287
     35  O         34.3220   21.2090   13.4310 O.2    56  ALA56      -0.2864
     36  CB        32.9760   24.1730   12.7240 C.3    56  ALA56       0.0319
     37  N         37.7140   21.1770   12.8350 N.3    58  LYS58      -0.1231
     38  CA        38.6930   20.6210   13.7640 C.3    58  LYS58       0.1693
     39  C         38.0840   19.9210   14.9720 C.2    58  LYS58       0.2592
     40  O         38.4720   18.8060   15.3200 O.2    58  LYS58      -0.2718
     41  CB        39.6250   21.7420   14.2420 C.3    58  LYS58       0.0285
     42  CG        40.6500   21.3240   15.2750 C.3    58  LYS58       0.0035
     43  CD        41.6160   22.4780   15.5970 C.3    58  LYS58       0.0206
     44  CE        42.5630   22.0600   16.7100 C.3    58  LYS58       0.1093
     45  NZ        43.7410   22.9460   16.8500 N.3    58  LYS58      -0.1314
     46  N         37.1120   20.5690   15.5980 N.am   59  TYR59      -0.1976
     47  CA        36.5170   20.0300   16.8150 C.3    59  TYR59       0.1639
     48  C         35.2680   19.1770   16.6740 C.2    59  TYR59       0.2290
     49  O         34.8650   18.5180   17.6320 O.2    59  TYR59      -0.2864
     50  CB        36.2520   21.1830   17.7830 C.3    59  TYR59       0.0560
     51  CG        37.5260   21.8880   18.1860 C.ar   59  TYR59      -0.0198
     52  CD1       37.8290   23.1610   17.7120 C.ar   59  TYR59      -0.0009
     53  CD2       38.4450   21.2620   19.0110 C.ar   59  TYR59      -0.0009
     54  CE1       39.0170   23.7960   18.0530 C.ar   59  TYR59       0.0417
     55  CE2       39.6300   21.8700   19.3530 C.ar   59  TYR59       0.0417
     56  CZ        39.9210   23.1330   18.8810 C.ar   59  TYR59       0.1957
     57  OH        41.1070   23.7380   19.2090 O.3    59  TYR59      -0.2866
     58  N         28.3490   22.6910   15.2390 N.3    81  ASP81      -0.1239
     59  CA        29.0360   21.4250   15.0800 C.3    81  ASP81       0.1674
     60  C         28.5630   20.4720   16.1680 C.2    81  ASP81       0.2266
     61  O         27.8630   20.8700   17.1150 O.2    81  ASP81      -0.2867
     62  CB        30.5720   21.5840   15.1130 C.3    81  ASP81       0.1410
     63  CG        31.0760   22.1090   16.4240 C.2    81  ASP81       0.3668
     64  OD1       30.9280   21.3930   17.4430 O.co2  81  ASP81      -0.2456
     65  OD2       31.6100   23.2410   16.4640 O.co2  81  ASP81      -0.2456
     66  N         32.5490   18.5570   21.2700 N.3    84  PRO84      -0.2102
     67  CA        32.3850   18.7560   22.7120 C.3    84  PRO84       0.1504
     68  C         31.8500   20.1090   23.1130 C.2    84  PRO84       0.2576
     69  O         31.4030   20.3020   24.2480 O.2    84  PRO84      -0.2718
     70  CB        33.7960   18.5280   23.2500 C.3    84  PRO84       0.0282
     71  CG        34.6530   19.0590   22.1190 C.3    84  PRO84       0.0208
     72  CD        33.9780   18.4640   20.9140 C.3    84  PRO84       0.0893
     73  N         31.9130   21.0510   22.1800 N.am   85  GLY85      -0.1943
     74  CA        31.4480   22.3860   22.4500 C.3    85  GLY85       0.2014
     75  C         32.4560   23.1760   23.2510 C.2    85  GLY85       0.2638
     76  O         33.5780   22.7270   23.4940 O.2    85  GLY85      -0.2714
     77  N         32.0340   24.3530   23.6730 N.am   86  ILE86      -0.1977
     78  CA        32.8420   25.2550   24.4610 C.3    86  ILE86       0.1596
     79  C         32.1750   25.3850   25.8280 C.2    86  ILE86       0.2287
     80  O         31.0560   25.9050   25.9430 O.2    86  ILE86      -0.2864
     81  CB        32.9080   26.6230   23.7730 C.3    86  ILE86       0.0276
     82  CG1       33.6360   26.4620   22.4310 C.3    86  ILE86       0.0022
     83  CG2       33.5790   27.6520   24.6770 C.3    86  ILE86       0.0022
     84  CD1       33.5210   27.6470   21.5390 C.3    86  ILE86       0.0001
     85  N         37.7240   32.7680   25.4420 N.3    94  ILE94      -0.1245
     86  CA        38.2390   32.3460   24.1420 C.3    94  ILE94       0.1561
     87  C         38.3790   33.5370   23.1990 C.2    94  ILE94       0.2260
     88  O         39.0270   33.4380   22.1490 O.2    94  ILE94      -0.2867
     89  CB        37.3410   31.2570   23.4700 C.3    94  ILE94       0.0252
     90  CG1       35.9470   31.8200   23.1840 C.3    94  ILE94       0.0019
     91  CG2       37.2690   30.0140   24.3620 C.3    94  ILE94       0.0019
     92  CD1       34.9740   30.7890   22.6040 C.3    94  ILE94       0.0001
     93  N         49.3840   32.1870   21.5050 N.3   100  ARG100     -0.1245
     94  CA        49.3430   31.4980   20.2170 C.3   100  ARG100      0.1563
     95  C         50.7350   31.4310   19.5780 C.2   100  ARG100      0.2260
     96  O         50.9350   31.8920   18.4550 O.2   100  ARG100     -0.2867
     97  CB        48.3530   32.1990   19.2660 C.3   100  ARG100      0.0307
     98  CG        46.9550   32.4180   19.8570 C.3   100  ARG100      0.0489
     99  CD        46.0000   33.1200   18.8790 C.3   100  ARG100      0.2205
    100  NE        45.5420   32.2380   17.8010 N.pl3 100  ARG100     -0.0865
    101  CZ        45.7010   32.4940   16.5050 C.cat 100  ARG100      0.5346
    102  NH1       46.3050   33.6070   16.1140 N.pl3 100  ARG100      0.1354
    103  NH2       45.2770   31.6230   15.5980 N.pl3 100  ARG100      0.1354
    104  N         51.4270   28.2440   16.1530 N.3   103  THR103     -0.1218
    105  CA        50.3880   27.2280   16.0450 C.3   103  THR103      0.1862
    106  C         50.0240   27.2550   14.5700 C.2   103  THR103      0.2287
    107  O         49.0030   26.7090   14.1450 O.2   103  THR103     -0.2866
    108  CB        49.1520   27.5790   16.9010 C.3   103  THR103      0.1770
    109  OG1       49.5270   27.6190   18.2850 O.3   103  THR103     -0.2211
    110  CG2       48.0520   26.5330   16.7180 C.3   103  THR103      0.0375
    111  N         49.7790   25.9180   11.6590 N.3   105  ARG105     -0.1245
    112  CA        49.7020   24.7610   10.7900 C.3   105  ARG105      0.1563
    113  C         49.1330   25.5030    9.5770 C.2   105  ARG105      0.2260
    114  O         48.4380   26.5050    9.7440 O.2   105  ARG105     -0.2867
    115  CB        48.7180   23.7200   11.3370 C.3   105  ARG105      0.0307
    116  CG        47.3810   24.2820   11.8110 C.3   105  ARG105      0.0489
    117  CD        46.4560   23.1700   12.3180 C.3   105  ARG105      0.2205
    118  NE        45.3070   23.7010   13.0520 N.pl3 105  ARG105     -0.0865
    119  CZ        44.2170   24.2280   12.4940 C.cat 105  ARG105      0.5346
    120  NH1       44.0940   24.2990   11.1770 N.pl3 105  ARG105      0.1354
    121  NH2       43.2480   24.7040   13.2660 N.pl3 105  ARG105      0.1354
    122  N         45.6400   27.1120    9.7550 N.3   108  GLN108     -0.1245
    123  CA        45.3150   27.9370   10.9110 C.3   108  GLN108      0.1566
    124  C         44.8350   29.3240   10.5040 C.2   108  GLN108      0.2260
    125  O         45.3040   29.8780    9.5080 O.2   108  GLN108     -0.2867
    126  CB        46.5410   28.0600   11.8130 C.3   108  GLN108      0.0367
    127  CG        46.2740   28.7830   13.1150 C.3   108  GLN108      0.0905
    128  CD        45.0900   28.2100   13.8560 C.2   108  GLN108      0.2608
    129  OE1       43.9450   28.6120   13.6300 O.2   108  GLN108     -0.2717
    130  NE2       45.3530   27.2490   14.7360 N.am  108  GLN108     -0.0878
    131  N         42.5450   33.4130   14.6280 N.3   111  GLY111     -0.1210
    132  CA        42.1730   33.2380   16.0230 C.3   111  GLY111      0.1956
    133  C         40.8630   33.9640   16.3150 C.2   111  GLY111      0.2612
    134  O         40.4930   34.9160   15.6180 O.2   111  GLY111     -0.2717
    135  N         40.1520   33.5360   17.3500 N.am  112  LEU112     -0.1965
    136  CA        38.8760   34.1680   17.6850 C.3   112  LEU112      0.1728
    137  C         38.9800   35.5760   18.2550 C.2   112  LEU112      0.2616
    138  O         38.0740   36.3810   18.0730 O.2   112  LEU112     -0.2715
    139  CB        38.0870   33.2790   18.6510 C.3   112  LEU112      0.0311
    140  CG        37.4050   32.0450   18.0750 C.3   112  LEU112      0.0022
    141  CD1       36.7250   31.2870   19.2070 C.3   112  LEU112      0.0001
    142  CD2       36.3800   32.4500   16.9790 C.3   112  LEU112      0.0001
    143  N         40.0680   35.8930   18.9530 N.am  113  ALA113     -0.1977
    144  CA        40.2250   37.2460   19.4850 C.3   113  ALA113      0.1597
    145  C         40.2800   38.2370   18.3290 C.2   113  ALA113      0.2287
    146  O         39.5700   39.2550   18.3210 O.2   113  ALA113     -0.2864
    147  CB        41.4910   37.3400   20.3100 C.3   113  ALA113      0.0319
    148  N         29.5390   23.2350   19.5360 N.3   136  ALA136     -0.1245
    149  CA        29.5110   24.6780   19.5270 C.3   136  ALA136      0.1562
    150  C         28.5780   25.3170   18.5100 C.2   136  ALA136      0.2260
    151  O         28.3340   24.7710   17.4550 O.2   136  ALA136     -0.2867
    152  CB        30.9170   25.2040   19.2760 C.3   136  ALA136      0.0290
    153  N         28.4590   29.0430   16.9020 N.3   138  MET138     -0.1245
    154  CA        29.1100   30.3210   16.8590 C.3   138  MET138      0.1570
    155  C         28.3000   31.2000   15.9570 C.2   138  MET138      0.2261
    156  O         28.0850   30.8530   14.8040 O.2   138  MET138     -0.2867
    157  CB        30.5300   30.1490   16.3150 C.3   138  MET138      0.0387
    158  CG        31.3740   29.1030   17.0790 C.3   138  MET138      0.0595
    159  SD        31.6940   29.5430   18.8050 S.3   138  MET138     -0.1393
    160  CE        32.2910   31.0400   18.5350 C.3   138  MET138      0.0692
@<TRIPOS>BOND
     1   125   124    2
     2   113   114    2
     3   113   112    1
     4   122   123    1
     5    23    21   ar
     6     1     2    1
     7    16    17    1
     8   124   123    1
     9    20    17    1
    10    20    21    1
    11    17    18    1
    12   112   115    1
    13   112   111    1
    14   123   126    1
    15    21    22   ar
    16   120   119    1
    17   115   116    1
    18     2     3    1
    19     2     5    1
    20   116   117    1
    21   126   127    1
    22    18    19    2
    23    18    24   am
    24     9     3   am
    25     9    10    1
    26    11    10    1
    27    11    12    2
    28     3     4    2
    29   117   118    1
    30     5     6    1
    31   119   118    2
    32   119   121    1
    33    13    10    1
    34    13    14    1
    35    13    15    1
    36    36    33    1
    37    37    38    1
    38    34    35    2
    39    34    33    1
    40    24    25    1
    41   127   128    1
    42    33    32    1
    43    32    26   am
    44   129   128    2
    45     7     6    2
    46     6     8   am
    47    38    41    1
    48    38    39    1
    49   128   130   am
    50   107   106    2
    51    41    42    1
    52    26    25    1
    53    26    27    2
    54    25    28    1
    55   106   105    1
    56   131   132    1
    57   156   155    2
    58    39    40    2
    59    39    46   am
    60    59    62    1
    61    59    58    1
    62    59    60    1
    63    62    63    1
    64    28    29    1
    65    42    43    1
    66    43    44    1
    67    46    47    1
    68   103   101    1
    69   134   133    2
    70    29    31   am
    71    29    30    2
    72   155   154    1
    73   132   133    1
    74   105   104    1
    75   105   108    1
    76   102   101    1
    77    60    61    2
    78   133   135   am
    79   157   154    1
    80   157   158    1
    81    63    65   ar
    82    63    64   ar
    83   101   100    2
    84    48    47    1
    85    48    49    2
    86    44    45    1
    87   110   108    1
    88    47    50    1
    89   154   153    1
    90   108   109    1
    91   142   140    1
    92   158   159    1
    93   135   136    1
    94   151   150    2
    95   136   137    1
    96   136   139    1
    97    52    54   ar
    98    52    51   ar
    99    50    51    1
   100   100    99    1
   101    54    56   ar
   102   138   137    2
   103   140   139    1
   104   140   141    1
   105    51    53   ar
   106   137   143   am
   107   146   145    2
   108   145   144    1
   109    96    95    2
   110   150   149    1
   111   160   159    1
   112    99    98    1
   113    56    57    1
   114    56    55   ar
   115   143   144    1
   116    53    55   ar
   117    97    98    1
   118    97    94    1
   119   152   149    1
   120   144   147    1
   121   149   148    1
   122    95    94    1
   123    94    93    1
   124    72    66    1
   125    72    71    1
   126    66    67    1
   127    84    82    1
   128    71    70    1
   129    88    87    2
   130    73    74    1
   131    73    68   am
   132    82    81    1
   133    74    75    1
   134    92    90    1
   135    67    68    1
   136    67    70    1
   137    68    69    2
   138    90    89    1
   139    87    86    1
   140    75    76    2
   141    75    77   am
   142    89    86    1
   143    89    91    1
   144    77    78    1
   145    81    78    1
   146    81    83    1
   147    86    85    1
   148    78    79    1
   149    79    80    2
