@<TRIPOS>MOLECULE
tmp/1id8A00.pdb
 131 123 0 0 0
SMALL
GASTEIGER

@<TRIPOS>ATOM
      1  N         -2.6400   -6.3220  -10.0550 N.3    11  ILE11      -0.1245
      2  CA        -2.8240   -7.6940  -10.5690 C.3    11  ILE11       0.1561
      3  C         -2.4870   -7.7220  -12.0700 C.2    11  ILE11       0.2260
      4  O         -2.6780   -6.7620  -12.8060 O.2    11  ILE11      -0.2867
      5  CB        -4.1740   -8.4390  -10.2460 C.3    11  ILE11       0.0252
      6  CG1       -4.0220   -9.9280   -9.8290 C.3    11  ILE11       0.0019
      7  CG2       -5.4070   -7.7500  -10.9070 C.3    11  ILE11       0.0019
      8  CD1       -5.3260  -10.7280   -9.6030 C.3    11  ILE11       0.0001
      9  N         -4.6400  -13.0930  -14.3480 N.3    14  ASP14      -0.1239
     10  CA        -5.1960  -14.0170  -13.3850 C.3    14  ASP14       0.1674
     11  C         -6.7060  -13.7330  -13.3590 C.2    14  ASP14       0.2266
     12  O         -7.1980  -13.1650  -12.3920 O.2    14  ASP14      -0.2867
     13  CB        -4.5280  -13.8190  -11.9940 C.3    14  ASP14       0.1410
     14  CG        -4.9690  -14.8300  -10.9180 C.2    14  ASP14       0.3668
     15  OD1       -5.4730  -15.8990  -11.2620 O.co2  14  ASP14      -0.2456
     16  OD2       -4.7960  -14.5300   -9.7380 O.co2  14  ASP14      -0.2456
     17  N         -8.6620  -11.3890   -8.7010 N.3    18  VAL18      -0.1231
     18  CA        -8.9540  -12.3050   -7.6040 C.3    18  VAL18       0.1692
     19  C         -8.2690  -11.7770   -6.3060 C.2    18  VAL18       0.2592
     20  O         -8.0680  -12.5090   -5.3450 O.2    18  VAL18      -0.2718
     21  CB        -8.4840  -13.7440   -7.9950 C.3    18  VAL18       0.0266
     22  CG1       -9.2180  -14.7950   -7.1050 C.3    18  VAL18       0.0020
     23  CG2       -7.9300  -14.1070   -9.3910 C.3    18  VAL18       0.0020
     24  N         -7.9300  -10.4610   -6.3490 N.am   19  GLY19      -0.1957
     25  CA        -7.3090   -9.7040   -5.2590 C.3    19  GLY19       0.1869
     26  C         -8.2810   -8.6090   -4.7750 C.2    19  GLY19       0.2309
     27  O         -8.3690   -8.2610   -3.5930 O.2    19  GLY19      -0.2863
     28  N        -10.9440   -6.9370   -0.8630 N.3    23  LEU23      -0.1245
     29  CA       -10.0040   -6.4310    0.1350 C.3    23  LEU23       0.1561
     30  C        -10.6080   -5.0350    0.5380 C.2    23  LEU23       0.2260
     31  O        -10.4130   -4.5180    1.6340 O.2    23  LEU23      -0.2867
     32  CB        -8.5750   -6.3170   -0.4320 C.3    23  LEU23       0.0270
     33  CG        -7.4120   -6.4780    0.5850 C.3    23  LEU23       0.0019
     34  CD1       -6.1500   -6.4590   -0.3590 C.3    23  LEU23       0.0001
     35  CD2       -7.8440   -5.6770    1.8710 C.3    23  LEU23       0.0001
     36  N         -1.5170   -3.8340   -2.7270 N.3    60  VAL60      -0.1231
     37  CA        -1.2490   -4.2960   -4.0840 C.3    60  VAL60       0.1692
     38  C         -1.7550   -5.7330   -4.1800 C.2    60  VAL60       0.2593
     39  O         -1.6540   -6.5080   -3.2370 O.2    60  VAL60      -0.2718
     40  CB         0.2730   -4.1400   -4.4310 C.3    60  VAL60       0.0266
     41  CG1        0.8520   -2.8470   -5.1110 C.3    60  VAL60       0.0020
     42  CG2        1.1280   -5.3610   -3.9580 C.3    60  VAL60       0.0020
     43  N         -2.3160   -6.0220   -5.3710 N.am   61  SER61      -0.1938
     44  CA        -2.8320   -7.3440   -5.6460 C.3    61  SER61       0.2055
     45  C         -1.9420   -7.8800   -6.7430 C.2    61  SER61       0.2644
     46  O         -2.3960   -8.1350   -7.8430 O.2    61  SER61      -0.2714
     47  CB        -4.3320   -7.3300   -6.0590 C.3    61  SER61       0.2130
     48  OG        -4.7990   -6.5240   -7.2130 O.3    61  SER61      -0.2179
     49  N         -0.6500   -8.0330   -6.3830 N.am   62  SER62      -0.1935
     50  CA         0.2990   -8.5500   -7.3610 C.3    62  SER62       0.2055
     51  C          1.5760   -8.8750   -6.5920 C.2    62  SER62       0.2642
     52  O          1.9340   -8.2370   -5.6100 O.2    62  SER62      -0.2714
     53  CB         0.6400   -7.5470   -8.5100 C.3    62  SER62       0.2130
     54  OG         1.6180   -6.4560   -8.2740 O.3    62  SER62      -0.2179
     55  N          2.2350   -9.9140   -7.1410 N.am   63  LEU63      -0.1977
     56  CA         3.4780  -10.4490   -6.6580 C.3    63  LEU63       0.1596
     57  C          4.4700  -10.1730   -7.7820 C.2    63  LEU63       0.2287
     58  O          4.9380  -11.0540   -8.4930 O.2    63  LEU63      -0.2864
     59  CB         3.3530  -11.9330   -6.2660 C.3    63  LEU63       0.0297
     60  CG         2.6700  -12.8260   -7.3530 C.3    63  LEU63       0.0022
     61  CD1        3.6200  -14.0010   -7.7330 C.3    63  LEU63       0.0001
     62  CD2        1.1340  -12.8400   -7.5470 C.3    63  LEU63       0.0001
     63  N          0.8100   -2.8540    2.9440 N.3    89  PHE89      -0.1241
     64  CA         0.5460   -4.2670    3.1730 C.3    89  PHE89       0.1605
     65  C          0.2850   -4.7500    1.7370 C.2    89  PHE89       0.2264
     66  O         -0.8050   -4.7320    1.1760 O.2    89  PHE89      -0.2867
     67  CB        -0.5780   -4.4260    4.2180 C.3    89  PHE89       0.0534
     68  CG        -0.5560   -5.7130    5.0200 C.ar   89  PHE89      -0.0203
     69  CD1        0.3230   -6.7650    4.7460 C.ar   89  PHE89      -0.0042
     70  CD2       -1.4560   -5.8710    6.0710 C.ar   89  PHE89      -0.0042
     71  CE1        0.2730   -7.9470    5.4730 C.ar   89  PHE89      -0.0003
     72  CE2       -1.4960   -7.0470    6.8060 C.ar   89  PHE89      -0.0003
     73  CZ        -0.6370   -8.0900    6.5070 C.ar   89  PHE89      -0.0000
     74  N          0.1110   -7.2180   -0.7380 N.3    91  GLY91      -0.1210
     75  CA        -0.4310   -8.5230   -1.0690 C.3    91  GLY91       0.1956
     76  C          0.3130   -9.1960   -2.2330 C.2    91  GLY91       0.2612
     77  O          0.4300   -8.6520   -3.3250 O.2    91  GLY91      -0.2717
     78  N          0.7900  -10.4180   -1.9060 N.am   92  GLY92      -0.1956
     79  CA         1.5410  -11.2410   -2.8470 C.3    92  GLY92       0.1869
     80  C          3.0410  -11.0010   -2.6390 C.2    92  GLY92       0.2309
     81  O          3.7330  -11.7760   -1.9910 O.2    92  GLY92      -0.2863
     82  N          7.0250  -14.1030   -4.6950 N.3    95  VAL95      -0.1245
     83  CA         6.5850  -15.4640   -4.4180 C.3    95  VAL95       0.1561
     84  C          7.7410  -16.1820   -3.7020 C.2    95  VAL95       0.2260
     85  O          8.8530  -15.6740   -3.6220 O.2    95  VAL95      -0.2867
     86  CB         6.2240  -16.1650   -5.7690 C.3    95  VAL95       0.0252
     87  CG1        4.9480  -17.0450   -5.6070 C.3    95  VAL95       0.0019
     88  CG2        6.9560  -15.8020   -7.0960 C.3    95  VAL95       0.0019
     89  N          1.3120  -10.5030    2.0510 N.3   117  TYR117     -0.1241
     90  CA         0.4300  -11.6250    2.3190 C.3   117  TYR117      0.1605
     91  C          1.0150  -12.7500    1.4350 C.2   117  TYR117      0.2264
     92  O          1.0460  -12.6070    0.2180 O.2   117  TYR117     -0.2867
     93  CB        -1.0150  -11.3300    1.9140 C.3   117  TYR117      0.0534
     94  CG        -1.6440  -10.0970    2.5150 C.ar  117  TYR117     -0.0201
     95  CD1       -1.1100   -8.8300    2.3190 C.ar  117  TYR117     -0.0009
     96  CD2       -2.8380  -10.2050    3.2200 C.ar  117  TYR117     -0.0009
     97  CE1       -1.7700   -7.7010    2.7430 C.ar  117  TYR117      0.0417
     98  CE2       -3.5090   -9.0780    3.6710 C.ar  117  TYR117      0.0417
     99  CZ        -2.9830   -7.8110    3.4220 C.ar  117  TYR117      0.1957
    100  OH        -3.6530   -6.6850    3.8690 O.3   117  TYR117     -0.2866
    101  N          1.4890  -16.0480   -0.8250 N.3   119  PRO119     -0.2102
    102  CA         0.5910  -16.5810   -1.8450 C.3   119  PRO119      0.1504
    103  C         -0.0790  -17.8210   -1.2350 C.2   119  PRO119      0.2576
    104  O          0.5640  -18.8140   -0.9180 O.2   119  PRO119     -0.2718
    105  CB         1.5100  -16.9190   -3.0300 C.3   119  PRO119      0.0282
    106  CG         2.9020  -17.0820   -2.4120 C.3   119  PRO119      0.0208
    107  CD         2.9010  -16.1650   -1.1890 C.3   119  PRO119      0.0893
    108  N         -1.4150  -17.6690   -1.0990 N.am  120  GLY120     -0.1943
    109  CA        -2.2690  -18.7070   -0.5350 C.3   120  GLY120      0.2014
    110  C         -2.9260  -18.2470    0.7740 C.2   120  GLY120      0.2640
    111  O         -3.1730  -19.0400    1.6750 O.2   120  GLY120     -0.2714
    112  N         -3.1870  -16.9210    0.8160 N.am  121  THR121     -0.1936
    113  CA        -3.8140  -16.2830    1.9570 C.3   121  THR121      0.2028
    114  C         -5.3260  -16.3440    1.6830 C.2   121  THR121      0.2642
    115  O         -5.8030  -17.0670    0.8160 O.2   121  THR121     -0.2714
    116  CB        -3.1450  -14.8810    2.1420 C.3   121  THR121      0.1808
    117  OG1       -2.5210  -14.3000    0.9510 O.3   121  THR121     -0.2208
    118  CG2       -2.2240  -14.8790    3.4040 C.3   121  THR121      0.0379
    119  N         -6.0340  -15.5430    2.4980 N.am  122  SER122     -0.1949
    120  CA        -7.4640  -15.4620    2.5120 C.3   122  SER122      0.1924
    121  C         -7.8150  -13.9880    2.7710 C.2   122  SER122      0.2314
    122  O         -6.9550  -13.1730    3.0820 O.2   122  SER122     -0.2863
    123  CB        -7.8520  -16.3730    3.7210 C.3   122  SER122      0.2116
    124  OG        -7.0020  -16.2990    4.9410 O.3   122  SER122     -0.2180
    125  N         -7.3270  -10.1030    5.5840 N.3   126  THR126     -0.1218
    126  CA        -7.5350   -8.6880    5.3750 C.3   126  THR126      0.1862
    127  C         -8.2470   -8.0860    6.5800 C.2   126  THR126      0.2287
    128  O         -8.2700   -6.8720    6.7630 O.2   126  THR126     -0.2866
    129  CB        -8.3250   -8.2630    4.1380 C.3   126  THR126      0.1770
    130  OG1       -9.7870   -8.3390    4.1840 O.3   126  THR126     -0.2211
    131  CG2       -7.6800   -8.8020    2.8380 C.3   126  THR126      0.0375
@<TRIPOS>BOND
     1     9    10    1
     2    10    11    1
     3    10    13    1
     4    11    12    2
     5     4     3    2
     6     3     2    1
     7    13    14    1
     8    15    14   ar
     9    14    16   ar
    10     7     5    1
    11     2     5    1
    12     2     1    1
    13     5     6    1
    14     6     8    1
    15    23    21    1
    16    17    18    1
    17    53    54    1
    18    53    50    1
    19    58    57    2
    20    21    18    1
    21    21    22    1
    22    46    45    2
    23    57    56    1
    24    61    60    1
    25    18    19    1
    26    62    60    1
    27    50    51    1
    28    50    49    1
    29    60    59    1
    30    48    47    1
    31    55    56    1
    32    55    51   am
    33    88    86    1
    34    45    49   am
    35    45    44    1
    36    56    59    1
    37    51    52    2
    38    24    19   am
    39    24    25    1
    40    19    20    2
    41    47    44    1
    42    86    87    1
    43    86    83    1
    44    44    43    1
    45    43    38   am
    46    25    26    1
    47    41    40    1
    48    26    27    2
    49    82    83    1
    50    40    37    1
    51    40    42    1
    52    83    84    1
    53    38    37    1
    54    38    39    2
    55    37    36    1
    56    84    85    2
    57    77    76    2
    58   105   106    1
    59   105   102    1
    60    79    80    1
    61    79    78    1
    62    80    81    2
    63   106   107    1
    64    76    78   am
    65    76    75    1
    66   102   103    1
    67   102   101    1
    68   103   108   am
    69   103   104    2
    70   107   101    1
    71   108   109    1
    72    75    74    1
    73    28    29    1
    74   109   110    1
    75    32    29    1
    76    32    33    1
    77    34    33    1
    78    29    30    1
    79    92    91    2
    80    30    31    2
    81    33    35    1
    82   110   112   am
    83   110   111    2
    84   112   113    1
    85   115   114    2
    86   117   116    1
    87    66    65    2
    88    91    90    1
    89   114   113    1
    90   114   119   am
    91    65    64    1
    92    93    90    1
    93    93    94    1
    94   113   116    1
    95    89    90    1
    96   116   118    1
    97    95    94   ar
    98    95    97   ar
    99   119   120    1
   100   120   121    1
   101   120   123    1
   102    94    96   ar
   103    97    99   ar
   104   121   122    2
   105   131   129    1
   106    63    64    1
   107    64    67    1
   108    96    98   ar
   109    99    98   ar
   110    99   100    1
   111   123   124    1
   112   129   130    1
   113   129   126    1
   114    67    68    1
   115    69    68   ar
   116    69    71   ar
   117    68    70   ar
   118   126   125    1
   119   126   127    1
   120    71    73   ar
   121    70    72   ar
   122    73    72   ar
   123   127   128    2
