@<TRIPOS>MOLECULE
tmp/1idaA00.pdb
 140 132 0 0 0
SMALL
GASTEIGER

@<TRIPOS>ATOM
      1  N         54.2620   34.5050   11.1330 N.3     8  ARG8       -0.1245
      2  CA        54.2010   34.0410    9.7480 C.3     8  ARG8        0.1563
      3  C         54.5160   35.1760    8.8340 C.2     8  ARG8        0.2260
      4  O         54.0410   36.2940    8.9980 O.2     8  ARG8       -0.2867
      5  CB        52.8150   33.5840    9.3800 C.3     8  ARG8        0.0307
      6  CG        52.3730   32.6640   10.4530 C.3     8  ARG8        0.0489
      7  CD        51.4960   31.5250   10.0240 C.3     8  ARG8        0.2205
      8  NE        50.1460   31.8550   10.1370 N.pl3   8  ARG8       -0.0865
      9  CZ        49.1200   31.2080   10.6710 C.cat   8  ARG8        0.5346
     10  NH1       49.1250   30.1220   11.4380 N.pl3   8  ARG8        0.1354
     11  NH2       47.9850   31.8550   10.4470 N.pl3   8  ARG8        0.1354
     12  N         50.9180   34.2170    2.3440 N.3    23  LEU23      -0.1245
     13  CA        52.0060   33.6730    3.1500 C.3    23  LEU23       0.1561
     14  C         53.1430   33.3140    2.1890 C.2    23  LEU23       0.2260
     15  O         52.8710   32.6390    1.2330 O.2    23  LEU23      -0.2867
     16  CB        51.4700   32.3680    3.8250 C.3    23  LEU23       0.0270
     17  CG        52.4840   31.4350    4.4930 C.3    23  LEU23       0.0019
     18  CD1       53.1580   32.1600    5.6470 C.3    23  LEU23       0.0001
     19  CD2       51.7350   30.2220    5.0080 C.3    23  LEU23       0.0001
     20  N         55.9120   31.1330    1.2970 N.3    25  ASP25      -0.1239
     21  CA        56.0830   29.7200    1.6080 C.3    25  ASP25       0.1674
     22  C         57.1750   29.0090    0.8580 C.2    25  ASP25       0.2266
     23  O         56.9050   28.5340   -0.2440 O.2    25  ASP25      -0.2867
     24  CB        54.7120   29.0020    1.4660 C.3    25  ASP25       0.1410
     25  CG        54.6050   27.6740    2.2470 C.2    25  ASP25       0.3668
     26  OD1       55.7670   27.2480    2.6360 O.co2  25  ASP25      -0.2456
     27  OD2       53.6820   26.9010    2.1930 O.co2  25  ASP25      -0.2456
     28  N         58.2120   26.1110    1.5280 N.3    27  GLY27      -0.1210
     29  CA        57.9420   24.6840    1.4950 C.3    27  GLY27       0.1956
     30  C         56.9740   24.2650    0.4030 C.2    27  GLY27       0.2612
     31  O         56.7640   23.0780    0.1850 O.2    27  GLY27      -0.2717
     32  N         56.3260   25.2440   -0.2420 N.am   28  ALA28      -0.1965
     33  CA        55.3280   24.9960   -1.2500 C.3    28  ALA28       0.1728
     34  C         55.9100   25.0780   -2.6530 C.2    28  ALA28       0.2616
     35  O         56.5710   26.0610   -2.9880 O.2    28  ALA28      -0.2715
     36  CB        54.2330   26.0460   -1.0910 C.3    28  ALA28       0.0334
     37  N         55.6480   24.0490   -3.4900 N.am   29  ASP29      -0.1957
     38  CA        56.1560   24.0570   -4.8390 C.3    29  ASP29       0.1840
     39  C         55.3440   24.9180   -5.7730 C.2    29  ASP29       0.2622
     40  O         55.9300   25.5860   -6.6360 O.2    29  ASP29      -0.2715
     41  CB        56.1800   22.6680   -5.4190 C.3    29  ASP29       0.1450
     42  CG        57.0060   21.6570   -4.6920 C.2    29  ASP29       0.3671
     43  OD1       58.0240   21.8910   -4.0460 O.co2  29  ASP29      -0.2456
     44  OD2       56.6600   20.4870   -5.0870 O.co2  29  ASP29      -0.2456
     45  N         54.0480   25.0140   -5.4470 N.am   30  ASP30      -0.1971
     46  CA        53.0220   25.7740   -6.1490 C.3    30  ASP30       0.1709
     47  C         52.3940   26.8950   -5.3120 C.2    30  ASP30       0.2293
     48  O         52.5870   26.9510   -4.0830 O.2    30  ASP30      -0.2864
     49  CB        51.9140   24.8260   -6.5790 C.3    30  ASP30       0.1436
     50  CG        52.3870   23.6930   -7.3940 C.2    30  ASP30       0.3671
     51  OD1       53.1610   23.8200   -8.3120 O.co2  30  ASP30      -0.2456
     52  OD2       51.8420   22.5600   -7.0820 O.co2  30  ASP30      -0.2456
     53  N         48.7740   28.9290   -4.2790 N.3    32  ILE32      -0.1245
     54  CA        47.3550   28.7020   -4.2850 C.3    32  ILE32       0.1561
     55  C         46.6120   29.7570   -3.4790 C.2    32  ILE32       0.2260
     56  O         46.9520   30.0330   -2.3290 O.2    32  ILE32      -0.2867
     57  CB        46.9550   27.2810   -3.9060 C.3    32  ILE32       0.0252
     58  CG1       45.4390   27.1630   -3.8040 C.3    32  ILE32       0.0019
     59  CG2       47.4990   26.9080   -2.5390 C.3    32  ILE32       0.0019
     60  CD1       45.0110   25.7330   -3.7590 C.3    32  ILE32       0.0001
     61  N         45.9490   18.8110   -6.3840 N.3    47  VAL47      -0.1231
     62  CA        47.1360   19.1520   -5.6050 C.3    47  VAL47       0.1692
     63  C         47.0940   18.4980   -4.2250 C.2    47  VAL47       0.2593
     64  O         46.0150   18.4100   -3.6290 O.2    47  VAL47      -0.2718
     65  CB        47.4660   20.6410   -5.5720 C.3    47  VAL47       0.0266
     66  CG1       46.5070   21.4640   -4.7530 C.3    47  VAL47       0.0020
     67  CG2       48.8930   20.9210   -5.1020 C.3    47  VAL47       0.0020
     68  N         48.2570   17.9700   -3.8130 N.am   48  GLY48      -0.1942
     69  CA        48.4180   17.2650   -2.5530 C.3    48  GLY48       0.2014
     70  C         49.0550   18.0820   -1.4120 C.2    48  GLY48       0.2639
     71  O         50.0700   18.7360   -1.5860 O.2    48  GLY48      -0.2714
     72  N         48.4240   18.0570   -0.2270 N.am   49  GLY49      -0.1939
     73  CA        48.9140   18.7240    0.9460 C.3    49  GLY49       0.2014
     74  C         49.2580   17.7180    2.0230 C.2    49  GLY49       0.2638
     75  O         49.2520   16.5240    1.7890 O.2    49  GLY49      -0.2714
     76  N         49.5540   18.1890    3.2160 N.am   50  ILE50      -0.1977
     77  CA        49.8850   17.2630    4.2770 C.3    50  ILE50       0.1596
     78  C         48.7400   16.3170    4.6530 C.2    50  ILE50       0.2287
     79  O         48.9900   15.2200    5.0990 O.2    50  ILE50      -0.2864
     80  CB        50.4040   18.0120    5.4940 C.3    50  ILE50       0.0276
     81  CG1       51.1560   17.0710    6.4400 C.3    50  ILE50       0.0022
     82  CG2       49.2290   18.6850    6.1950 C.3    50  ILE50       0.0022
     83  CD1       51.8160   17.8210    7.5950 C.3    50  ILE50       0.0001
     84  N         44.4550   15.5250   -0.7830 N.3    53  PHE53      -0.1227
     85  CA        44.4690   16.1790   -2.0680 C.3    53  PHE53       0.1736
     86  C         43.2790   17.0540   -2.2070 C.2    53  PHE53       0.2595
     87  O         42.2030   16.7050   -1.6910 O.2    53  PHE53      -0.2718
     88  CB        44.3790   15.1320   -3.1760 C.3    53  PHE53       0.0547
     89  CG        45.6960   14.4500   -3.3530 C.ar   53  PHE53      -0.0202
     90  CD1       46.0610   13.3830   -2.5320 C.ar   53  PHE53      -0.0042
     91  CD2       46.5960   14.8890   -4.3180 C.ar   53  PHE53      -0.0042
     92  CE1       47.3180   12.7840   -2.6410 C.ar   53  PHE53      -0.0003
     93  CE2       47.8540   14.2990   -4.4330 C.ar   53  PHE53      -0.0003
     94  CZ        48.2340   13.2740   -3.5690 C.ar   53  PHE53      -0.0000
     95  N         43.4380   18.1090   -2.9940 N.am   54  ILE54      -0.1980
     96  CA        42.3240   18.9930   -3.3020 C.3    54  ILE54       0.1595
     97  C         42.2310   19.2390   -4.8040 C.2    54  ILE54       0.2287
     98  O         43.2180   19.0050   -5.5380 O.2    54  ILE54      -0.2864
     99  CB        42.2980   20.3030   -2.5070 C.3    54  ILE54       0.0276
    100  CG1       43.4500   21.2080   -2.9450 C.3    54  ILE54       0.0022
    101  CG2       42.3310   20.0390   -0.9940 C.3    54  ILE54       0.0022
    102  CD1       43.4340   22.5250   -2.1890 C.3    54  ILE54       0.0001
    103  N         47.1180   28.8220   -8.7010 N.3    76  MET76      -0.1245
    104  CA        45.9950   27.9180   -8.6300 C.3    76  MET76       0.1570
    105  C         44.9590   28.5320   -7.7080 C.2    76  MET76       0.2261
    106  O         45.2740   29.2860   -6.7650 O.2    76  MET76      -0.2867
    107  CB        46.3720   26.5440   -8.0730 C.3    76  MET76       0.0387
    108  CG        47.3340   25.7540   -8.9270 C.3    76  MET76       0.0595
    109  SD        47.5720   24.2280   -8.0260 S.3    76  MET76      -0.1393
    110  CE        48.9950   24.5430   -6.9870 C.3    76  MET76       0.0692
    111  N         41.8030   26.6860    0.1920 N.3    80  THR80      -0.1204
    112  CA        42.9530   26.7330    1.0530 C.3    80  THR80       0.1979
    113  C         42.6630   27.6410    2.2480 C.2    80  THR80       0.2460
    114  O         42.1130   28.7190    2.1590 O.2    80  THR80      -0.2732
    115  CB        44.2090   27.1210    0.2700 C.3    80  THR80       0.1783
    116  OG1       45.2640   27.1480    1.1890 O.3    80  THR80      -0.2211
    117  CG2       44.0140   28.4640   -0.4260 C.3    80  THR80       0.0376
    118  N         42.9710   27.1790    3.4190 N.am   81  PRO81      -0.2717
    119  CA        42.6840   28.0110    4.5420 C.3    81  PRO81       0.1535
    120  C         43.4690   29.2850    4.5200 C.2    81  PRO81       0.2598
    121  O         43.0480   30.2700    5.1470 O.2    81  PRO81      -0.2715
    122  CB        43.1110   27.2470    5.7740 C.3    81  PRO81       0.0310
    123  CG        43.8710   26.0460    5.2780 C.3    81  PRO81       0.0237
    124  CD        43.6330   25.9290    3.7880 C.3    81  PRO81       0.0939
    125  N         44.6430   29.2680    3.8790 N.am   82  ILE82      -0.1978
    126  CA        45.5150   30.4420    3.8940 C.3    82  ILE82       0.1596
    127  C         46.0470   30.6320    2.4960 C.2    82  ILE82       0.2287
    128  O         46.3760   29.6400    1.8690 O.2    82  ILE82      -0.2864
    129  CB        46.6750   30.2200    4.9050 C.3    82  ILE82       0.0276
    130  CG1       46.1280   29.9310    6.2990 C.3    82  ILE82       0.0022
    131  CG2       47.5370   31.4620    5.0370 C.3    82  ILE82       0.0022
    132  CD1       47.0770   30.4750    7.3660 C.3    82  ILE82       0.0001
    133  N         48.6350   30.9730   -0.2890 N.3    84  ILE84      -0.1245
    134  CA        50.0430   30.7710   -0.2640 C.3    84  ILE84       0.1561
    135  C         50.8030   31.0850   -1.5630 C.2    84  ILE84       0.2260
    136  O         50.3620   30.7390   -2.6430 O.2    84  ILE84      -0.2867
    137  CB        50.4110   29.4280    0.3240 C.3    84  ILE84       0.0252
    138  CG1       50.7510   28.5320   -0.7760 C.3    84  ILE84       0.0019
    139  CG2       49.4230   28.6760    1.2140 C.3    84  ILE84       0.0019
    140  CD1       52.1890   28.2860   -0.5780 C.3    84  ILE84       0.0001
@<TRIPOS>BOND
     1   108   107    1
     2   108   109    1
     3   103   104    1
     4   104   107    1
     5   104   105    1
     6    51    50   ar
     7   109   110    1
     8   105   106    2
     9    50    52   ar
    10    50    49    1
    11    40    39    2
    12    49    46    1
    13    61    62    1
    14    46    45    1
    15    46    47    1
    16    39    45   am
    17    39    38    1
    18    62    65    1
    19    62    63    1
    20    65    67    1
    21    65    66    1
    22    98    97    2
    23    41    38    1
    24    41    42    1
    25    47    48    2
    26    44    42   ar
    27    38    37    1
    28    97    96    1
    29    42    43   ar
    30    93    91   ar
    31    93    94   ar
    32    91    89   ar
    33    54    53    1
    34    54    57    1
    35    54    55    1
    36    63    68   am
    37    63    64    2
    38    57    58    1
    39    57    59    1
    40    68    69    1
    41    58    60    1
    42    94    92   ar
    43    37    34   am
    44    55    56    2
    45    89    88    1
    46    89    90   ar
    47    96    95    1
    48    96    99    1
    49    88    85    1
    50    95    86   am
    51    35    34    2
    52   100    99    1
    53   100   102    1
    54    34    33    1
    55   136   135    2
    56    92    90   ar
    57    69    70    1
    58    99   101    1
    59    86    85    1
    60    86    87    2
    61    85    84    1
    62    71    70    2
    63   135   134    1
    64    70    72   am
    65    33    36    1
    66    33    32    1
    67   138   140    1
    68   138   137    1
    69   117   115    1
    70   133   134    1
    71   134   137    1
    72    23    22    2
    73    32    30   am
    74    72    73    1
    75    31    30    2
    76   111   112    1
    77   115   112    1
    78   115   116    1
    79   137   139    1
    80    30    29    1
    81    22    21    1
    82    73    74    1
    83   112   113    1
    84    15    14    2
    85    20    21    1
    86    24    21    1
    87    24    25    1
    88    29    28    1
    89    75    74    2
    90   128   127    2
    91    74    76   am
    92   114   113    2
    93    14    13    1
    94    27    25   ar
    95    25    26   ar
    96   113   118   am
    97    12    13    1
    98   127   126    1
    99    13    16    1
   100    76    77    1
   101   118   124    1
   102   118   119    1
   103   124   123    1
   104    16    17    1
   105   125   126    1
   106   125   120   am
   107   126   129    1
   108    77    78    1
   109    77    80    1
   110    17    19    1
   111    17    18    1
   112   120   119    1
   113   120   121    2
   114   119   122    1
   115    78    79    2
   116   129   131    1
   117   129   130    1
   118   123   122    1
   119    80    82    1
   120    80    81    1
   121   130   132    1
   122    81    83    1
   123     3     4    2
   124     3     2    1
   125     5     2    1
   126     5     6    1
   127     2     1    1
   128     7     8    1
   129     7     6    1
   130     8     9    2
   131    11     9    1
   132     9    10    1
