@<TRIPOS>MOLECULE
tmp/1idbA00.pdb
 140 132 0 0 0
SMALL
GASTEIGER

@<TRIPOS>ATOM
      1  N         54.4490   34.5910   11.0990 N.3     8  ARG8       -0.1245
      2  CA        54.2850   34.0340    9.7640 C.3     8  ARG8        0.1563
      3  C         54.6460   35.1140    8.7870 C.2     8  ARG8        0.2260
      4  O         54.2560   36.2540    8.9950 O.2     8  ARG8       -0.2867
      5  CB        52.8200   33.8430    9.5700 C.3     8  ARG8        0.0307
      6  CG        52.3310   32.6250   10.2670 C.3     8  ARG8        0.0489
      7  CD        51.0410   32.1900    9.6370 C.3     8  ARG8        0.2205
      8  NE        50.5810   30.8730   10.0900 N.pl3   8  ARG8       -0.0865
      9  CZ        49.2840   30.6690   10.3320 C.cat   8  ARG8        0.5346
     10  NH1       48.4190   31.6860   10.1530 N.pl3   8  ARG8        0.1354
     11  NH2       48.8530   29.4620   10.7560 N.pl3   8  ARG8        0.1354
     12  N         50.8840   34.2410    2.2280 N.3    23  LEU23      -0.1245
     13  CA        51.9360   33.7050    3.0590 C.3    23  LEU23       0.1561
     14  C         53.1110   33.3850    2.1880 C.2    23  LEU23       0.2260
     15  O         52.9060   32.7480    1.1950 O.2    23  LEU23      -0.2867
     16  CB        51.3500   32.4100    3.7030 C.3    23  LEU23       0.0270
     17  CG        52.3070   31.5610    4.5450 C.3    23  LEU23       0.0019
     18  CD1       52.7700   32.3850    5.7520 C.3    23  LEU23       0.0001
     19  CD2       51.5620   30.3210    5.0430 C.3    23  LEU23       0.0001
     20  N         55.8680   31.0380    1.3820 N.3    25  ASP25      -0.1239
     21  CA        56.0880   29.6450    1.7030 C.3    25  ASP25       0.1674
     22  C         57.1590   28.9210    0.8910 C.2    25  ASP25       0.2266
     23  O         56.9330   28.5460   -0.2560 O.2    25  ASP25      -0.2867
     24  CB        54.7340   28.9580    1.4760 C.3    25  ASP25       0.1410
     25  CG        54.4960   27.6420    2.2020 C.2    25  ASP25       0.3668
     26  OD1       55.5500   27.0500    2.6780 O.co2  25  ASP25      -0.2456
     27  OD2       53.4140   27.1580    2.3120 O.co2  25  ASP25      -0.2456
     28  N         58.0910   25.9810    1.3370 N.3    27  GLY27      -0.1210
     29  CA        57.7730   24.5550    1.2510 C.3    27  GLY27       0.1956
     30  C         56.6640   24.2390    0.2660 C.2    27  GLY27       0.2612
     31  O         56.2990   23.0820    0.0160 O.2    27  GLY27      -0.2717
     32  N         56.0980   25.2870   -0.3120 N.am   28  ALA28      -0.1965
     33  CA        55.1040   25.1140   -1.3260 C.3    28  ALA28       0.1728
     34  C         55.7840   25.2480   -2.6960 C.2    28  ALA28       0.2616
     35  O         56.4310   26.2640   -2.9430 O.2    28  ALA28      -0.2715
     36  CB        54.0440   26.1560   -1.0710 C.3    28  ALA28       0.0334
     37  N         55.6400   24.2370   -3.5880 N.am   29  ASP29      -0.1957
     38  CA        56.2030   24.2370   -4.9200 C.3    29  ASP29       0.1840
     39  C         55.4860   25.1900   -5.8360 C.2    29  ASP29       0.2622
     40  O         56.1100   25.8720   -6.6650 O.2    29  ASP29      -0.2715
     41  CB        56.1630   22.8430   -5.5300 C.3    29  ASP29       0.1450
     42  CG        56.9170   21.7990   -4.7640 C.2    29  ASP29       0.3671
     43  OD1       57.9700   22.0310   -4.2320 O.co2  29  ASP29      -0.2456
     44  OD2       56.4270   20.5690   -4.8760 O.co2  29  ASP29      -0.2456
     45  N         54.1680   25.2550   -5.6490 N.am   30  ASP30      -0.1971
     46  CA        53.2450   26.0950   -6.4130 C.3    30  ASP30       0.1709
     47  C         52.4530   27.0920   -5.5560 C.2    30  ASP30       0.2293
     48  O         52.6550   27.1740   -4.3520 O.2    30  ASP30      -0.2864
     49  CB        52.3080   25.2170   -7.2500 C.3    30  ASP30       0.1436
     50  CG        53.0930   24.2910   -8.1720 C.2    30  ASP30       0.3671
     51  OD1       54.0490   24.6260   -8.8880 O.co2  30  ASP30      -0.2456
     52  OD2       52.6510   23.0630   -8.1110 O.co2  30  ASP30      -0.2456
     53  N         48.7240   29.0510   -4.3960 N.3    32  ILE32      -0.1245
     54  CA        47.3060   28.8400   -4.3740 C.3    32  ILE32       0.1561
     55  C         46.6510   29.8830   -3.5600 C.2    32  ILE32       0.2260
     56  O         47.1100   30.2090   -2.4750 O.2    32  ILE32      -0.2867
     57  CB        46.8740   27.4070   -4.0500 C.3    32  ILE32       0.0252
     58  CG1       45.3680   27.2180   -3.9390 C.3    32  ILE32       0.0019
     59  CG2       47.5750   26.8240   -2.8480 C.3    32  ILE32       0.0019
     60  CD1       45.0660   25.7350   -4.0410 C.3    32  ILE32       0.0001
     61  N         45.8630   18.9490   -6.2530 N.3    47  VAL47      -0.1231
     62  CA        46.9980   19.4100   -5.4590 C.3    47  VAL47       0.1692
     63  C         46.9280   18.8180   -4.0940 C.2    47  VAL47       0.2593
     64  O         45.8640   18.9080   -3.4620 O.2    47  VAL47      -0.2718
     65  CB        47.1860   20.9490   -5.3710 C.3    47  VAL47       0.0266
     66  CG1       48.6570   21.2770   -5.0950 C.3    47  VAL47       0.0020
     67  CG2       46.7550   21.6930   -6.6440 C.3    47  VAL47       0.0020
     68  N         48.0870   18.2380   -3.7280 N.am   48  GLY48      -0.1942
     69  CA        48.4220   17.4820   -2.5310 C.3    48  GLY48       0.2014
     70  C         49.0690   18.2860   -1.4230 C.2    48  GLY48       0.2639
     71  O         50.0430   19.0210   -1.5640 O.2    48  GLY48      -0.2714
     72  N         48.4940   18.1290   -0.2770 N.am   49  GLY49      -0.1939
     73  CA        48.9790   18.7830    0.8700 C.3    49  GLY49       0.2014
     74  C         49.0620   17.7620    1.9630 C.2    49  GLY49       0.2638
     75  O         48.9460   16.5700    1.7140 O.2    49  GLY49      -0.2714
     76  N         49.2160   18.2550    3.1790 N.am   50  ILE50      -0.1977
     77  CA        49.3390   17.4010    4.3240 C.3    50  ILE50       0.1596
     78  C         48.1440   16.5200    4.5740 C.2    50  ILE50       0.2287
     79  O         48.3560   15.3470    4.8870 O.2    50  ILE50      -0.2864
     80  CB        49.8670   18.1040    5.5810 C.3    50  ILE50       0.0276
     81  CG1       51.0710   17.3280    6.1060 C.3    50  ILE50       0.0022
     82  CG2       48.7720   18.1950    6.6470 C.3    50  ILE50       0.0022
     83  CD1       52.0520   18.1940    6.8940 C.3    50  ILE50       0.0001
     84  N         44.0220   15.6580   -0.9290 N.3    53  PHE53      -0.1227
     85  CA        44.1180   16.3330   -2.2270 C.3    53  PHE53       0.1736
     86  C         43.0350   17.3060   -2.4400 C.2    53  PHE53       0.2595
     87  O         41.9550   17.0870   -1.9250 O.2    53  PHE53      -0.2718
     88  CB        44.0370   15.3410   -3.4000 C.3    53  PHE53       0.0547
     89  CG        45.3700   14.6900   -3.5580 C.ar   53  PHE53      -0.0202
     90  CD1       45.7500   13.6510   -2.7140 C.ar   53  PHE53      -0.0042
     91  CD2       46.3160   15.2280   -4.4310 C.ar   53  PHE53      -0.0042
     92  CE1       47.0280   13.1030   -2.8230 C.ar   53  PHE53      -0.0003
     93  CE2       47.5950   14.6810   -4.5500 C.ar   53  PHE53      -0.0003
     94  CZ        47.9550   13.6180   -3.7280 C.ar   53  PHE53      -0.0000
     95  N         43.3070   18.3400   -3.2360 N.am   54  ILE54      -0.1980
     96  CA        42.2710   19.2890   -3.5840 C.3    54  ILE54       0.1595
     97  C         42.2020   19.5350   -5.0950 C.2    54  ILE54       0.2287
     98  O         43.1880   19.4320   -5.8170 O.2    54  ILE54      -0.2864
     99  CB        42.2950   20.5980   -2.7870 C.3    54  ILE54       0.0276
    100  CG1       43.4850   21.4470   -3.1500 C.3    54  ILE54       0.0022
    101  CG2       42.2670   20.4220   -1.2710 C.3    54  ILE54       0.0022
    102  CD1       43.2740   22.8440   -2.5940 C.3    54  ILE54       0.0001
    103  N         47.1660   29.0450   -8.9900 N.3    76  MET76      -0.1245
    104  CA        46.0450   28.1780   -8.9040 C.3    76  MET76       0.1570
    105  C         44.9950   28.7820   -8.0070 C.2    76  MET76       0.2261
    106  O         45.2420   29.6180   -7.1570 O.2    76  MET76      -0.2867
    107  CB        46.4530   26.9170   -8.2300 C.3    76  MET76       0.0387
    108  CG        46.7490   25.8080   -9.1800 C.3    76  MET76       0.0595
    109  SD        47.5500   24.5700   -8.1890 S.3    76  MET76      -0.1393
    110  CE        49.2560   25.1730   -8.3430 C.3    76  MET76       0.0692
    111  N         41.4510   26.8430   -0.1260 N.3    80  THR80      -0.1204
    112  CA        42.6500   26.9950    0.6830 C.3    80  THR80       0.1982
    113  C         42.4430   27.9070    1.8970 C.2    80  THR80       0.2497
    114  O         41.9830   29.0380    1.7910 O.2    80  THR80      -0.2729
    115  CB        43.7630   27.5220   -0.2140 C.3    80  THR80       0.1783
    116  OG1       44.9570   27.4220    0.4990 O.3    80  THR80      -0.2211
    117  CG2       43.4780   28.9720   -0.5730 C.3    80  THR80       0.0376
    118  N         42.7850   27.4180    3.0780 N.am   81  PRO81      -0.2492
    119  CA        42.5950   28.1740    4.2770 C.3    81  PRO81       0.1619
    120  C         43.4420   29.4100    4.3300 C.2    81  PRO81       0.2605
    121  O         43.0390   30.4140    4.9200 O.2    81  PRO81      -0.2715
    122  CB        43.0070   27.2770    5.4070 C.3    81  PRO81       0.0570
    123  CG        43.4860   25.9740    4.8220 C.2    81  PRO81      -0.0077
    124  CD        43.3830   26.0810    3.3230 C.2    81  PRO81       0.0634
    125  N         44.6440   29.3450    3.7280 N.am   82  ILE82      -0.1978
    126  CA        45.5490   30.5040    3.6870 C.3    82  ILE82       0.1596
    127  C         46.0310   30.7300    2.2640 C.2    82  ILE82       0.2287
    128  O         46.3890   29.7800    1.6020 O.2    82  ILE82      -0.2864
    129  CB        46.7650   30.2630    4.6200 C.3    82  ILE82       0.0276
    130  CG1       46.3170   29.9450    6.0200 C.3    82  ILE82       0.0022
    131  CG2       47.6840   31.4550    4.7270 C.3    82  ILE82       0.0022
    132  CD1       47.5230   29.6310    6.8970 C.3    82  ILE82       0.0001
    133  N         48.6430   31.1980   -0.3670 N.3    84  ILE84      -0.1245
    134  CA        50.0100   30.8000   -0.4870 C.3    84  ILE84       0.1561
    135  C         50.7230   31.2380   -1.7520 C.2    84  ILE84       0.2260
    136  O         50.2540   30.9970   -2.8360 O.2    84  ILE84      -0.2867
    137  CB        50.0350   29.2890   -0.3180 C.3    84  ILE84       0.0252
    138  CG1       49.8450   28.9600    1.1610 C.3    84  ILE84       0.0019
    139  CG2       51.3200   28.6780   -0.8270 C.3    84  ILE84       0.0019
    140  CD1       49.1370   27.6330    1.3820 C.3    84  ILE84       0.0001
@<TRIPOS>BOND
     1   108   107    1
     2   108   109    1
     3   103   104    1
     4   104   107    1
     5   104   105    1
     6    51    50   ar
     7   110   109    1
     8    50    52   ar
     9    50    49    1
    10   105   106    2
    11    49    46    1
    12    40    39    2
    13    67    65    1
    14    46    45    1
    15    46    47    1
    16    61    62    1
    17    39    45   am
    18    39    38    1
    19    98    97    2
    20    47    48    2
    21    41    38    1
    22    41    42    1
    23    62    65    1
    24    62    63    1
    25    65    66    1
    26    97    96    1
    27    38    37    1
    28    44    42   ar
    29    42    43   ar
    30    93    91   ar
    31    93    94   ar
    32    91    89   ar
    33    53    54    1
    34    54    57    1
    35    54    55    1
    36    63    68   am
    37    63    64    2
    38    57    58    1
    39    57    59    1
    40    60    58    1
    41    68    69    1
    42    94    92   ar
    43    37    34   am
    44    96    95    1
    45    96    99    1
    46    55    56    2
    47    89    88    1
    48    89    90   ar
    49    88    85    1
    50    95    86   am
    51   100    99    1
    52   100   102    1
    53    35    34    2
    54   136   135    2
    55    92    90   ar
    56    99   101    1
    57    34    33    1
    58    69    70    1
    59    86    85    1
    60    86    87    2
    61    85    84    1
    62   135   134    1
    63    71    70    2
    64    70    72   am
    65    33    36    1
    66    33    32    1
    67   139   137    1
    68   117   115    1
    69   134   133    1
    70   134   137    1
    71   137   138    1
    72    32    30   am
    73    72    73    1
    74    23    22    2
    75   115   116    1
    76   115   112    1
    77   111   112    1
    78    31    30    2
    79    30    29    1
    80   112   113    1
    81    73    74    1
    82    22    21    1
    83   138   140    1
    84    15    14    2
    85    29    28    1
    86    20    21    1
    87    24    21    1
    88    24    25    1
    89   128   127    2
    90    75    74    2
    91   114   113    2
    92   113   118   am
    93    74    76   am
    94    14    13    1
    95    25    27   ar
    96    25    26   ar
    97    12    13    1
    98   127   126    1
    99    13    16    1
   100   118   124    1
   101   118   119    1
   102    76    77    1
   103   124   123    2
   104   126   125    1
   105   126   129    1
   106    16    17    1
   107   125   120   am
   108   119   120    1
   109   119   122    1
   110    77    78    1
   111    77    80    1
   112   120   121    2
   113    17    19    1
   114    17    18    1
   115    78    79    2
   116   129   131    1
   117   129   130    1
   118   123   122    1
   119    80    81    1
   120    80    82    1
   121   130   132    1
   122    81    83    1
   123     3     4    2
   124     3     2    1
   125     5     2    1
   126     5     6    1
   127     7     8    1
   128     7     6    1
   129     2     1    1
   130     8     9    2
   131    10     9    1
   132     9    11    1
