@<TRIPOS>MOLECULE
tmp/1idtA03.pdb
 94 90 0 0 0
SMALL
GASTEIGER

@<TRIPOS>ATOM
      1  N         18.2710  -34.6200   43.2940 N.3    12  SER12      -0.1217
      2  CA        19.0690  -33.7930   44.1870 C.3    12  SER12       0.1889
      3  C         20.5300  -34.0750   43.8550 C.2    12  SER12       0.2288
      4  O         21.0020  -35.2000   44.0130 O.2    12  SER12      -0.2866
      5  CB        18.7780  -34.1360   45.6540 C.3    12  SER12       0.2089
      6  OG        17.4520  -33.7790   46.0070 O.3    12  SER12      -0.2183
      7  N         24.4210  -34.2870   44.1740 N.3    14  LYS14      -0.1245
      8  CA        25.3430  -34.4950   45.2820 C.3    14  LYS14       0.1561
      9  C         26.7130  -33.8630   45.0930 C.2    14  LYS14       0.2260
     10  O         27.4900  -33.7850   46.0450 O.2    14  LYS14      -0.2867
     11  CB        25.4740  -35.9860   45.5940 C.3    14  LYS14       0.0271
     12  CG        24.1460  -36.6680   45.9100 C.3    14  LYS14       0.0035
     13  CD        23.4580  -36.0240   47.1070 C.3    14  LYS14       0.0206
     14  CE        22.1670  -36.7440   47.4510 C.3    14  LYS14       0.1093
     15  NZ        21.5840  -36.2300   48.7220 N.3    14  LYS14      -0.1314
     16  N         27.2520  -30.6230   59.5860 N.3    68  TYR68      -0.1241
     17  CA        26.8100  -30.2820   58.2390 C.3    68  TYR68       0.1605
     18  C         27.9180  -30.1180   57.2060 C.2    68  TYR68       0.2264
     19  O         27.6670  -29.6450   56.0920 O.2    68  TYR68      -0.2867
     20  CB        25.9390  -29.0230   58.2970 C.3    68  TYR68       0.0534
     21  CG        24.7540  -29.1650   59.2290 C.ar   68  TYR68      -0.0201
     22  CD1       24.5370  -28.2540   60.2580 C.ar   68  TYR68      -0.0009
     23  CD2       23.8580  -30.2260   59.0920 C.ar   68  TYR68      -0.0009
     24  CE1       23.4560  -28.3960   61.1330 C.ar   68  TYR68       0.0417
     25  CE2       22.7720  -30.3780   59.9610 C.ar   68  TYR68       0.0417
     26  CZ        22.5790  -29.4600   60.9770 C.ar   68  TYR68       0.1957
     27  OH        21.5080  -29.6050   61.8340 O.3    68  TYR68      -0.2866
     28  N         28.9650  -32.0640   55.4190 N.3    70  PHE70      -0.1227
     29  CA        28.5270  -32.8830   54.2920 C.3    70  PHE70       0.1736
     30  C         28.0300  -32.0250   53.1170 C.2    70  PHE70       0.2595
     31  O         28.1390  -32.4340   51.9590 O.2    70  PHE70      -0.2718
     32  CB        27.4120  -33.8370   54.7640 C.3    70  PHE70       0.0547
     33  CG        26.7310  -34.5950   53.6490 C.ar   70  PHE70      -0.0202
     34  CD1       27.3210  -35.7290   53.0920 C.ar   70  PHE70      -0.0042
     35  CD2       25.5030  -34.1640   53.1470 C.ar   70  PHE70      -0.0042
     36  CE1       26.6980  -36.4210   52.0460 C.ar   70  PHE70      -0.0003
     37  CE2       24.8730  -34.8470   52.1040 C.ar   70  PHE70      -0.0003
     38  CZ        25.4720  -35.9770   51.5520 C.ar   70  PHE70      -0.0000
     39  N         27.5330  -30.8230   53.4180 N.am   71  ASN71      -0.1974
     40  CA        26.9950  -29.9250   52.3920 C.3    71  ASN71       0.1688
     41  C         27.8680  -28.7340   51.9740 C.2    71  ASN71       0.2292
     42  O         27.4390  -27.9140   51.1570 O.2    71  ASN71      -0.2864
     43  CB        25.6210  -29.4040   52.8280 C.3    71  ASN71       0.1181
     44  CG        24.6030  -30.5150   53.0220 C.2    71  ASN71       0.2629
     45  OD1       24.3540  -31.3150   52.1180 O.2    71  ASN71      -0.2716
     46  ND2       23.9990  -30.5600   54.2040 N.am   71  ASN71      -0.0877
     47  N         28.8460  -28.5680   48.0760 N.3    74  LYS74      -0.1245
     48  CA        27.6870  -28.1810   47.2710 C.3    74  LYS74       0.1561
     49  C         27.5070  -26.6720   47.2630 C.2    74  LYS74       0.2260
     50  O         27.2930  -26.0650   46.2120 O.2    74  LYS74      -0.2867
     51  CB        26.4100  -28.8290   47.8130 C.3    74  LYS74       0.0271
     52  CG        26.4160  -30.3350   47.7830 C.3    74  LYS74       0.0035
     53  CD        25.3050  -30.9070   48.6460 C.3    74  LYS74       0.0206
     54  CE        25.4950  -32.4050   48.8270 C.3    74  LYS74       0.1093
     55  NZ        24.4490  -33.0080   49.6910 N.3    74  LYS74      -0.1314
     56  N         18.0210  -29.2120   47.4020 N.3   163  PRO163     -0.2116
     57  CA        17.4510  -28.4910   48.5430 C.3   163  PRO163      0.1372
     58  C         18.2770  -28.9130   49.7470 C.2   163  PRO163      0.2244
     59  O         18.5560  -30.1050   49.9140 O.2   163  PRO163     -0.2868
     60  CB        16.0330  -29.0660   48.6660 C.3   163  PRO163      0.0268
     61  CG        15.8480  -29.9630   47.4580 C.3   163  PRO163      0.0207
     62  CD        17.2050  -30.3870   47.0470 C.3   163  PRO163      0.0892
     63  N         18.6210  -28.6830   53.9810 N.3   165  GLU165     -0.1231
     64  CA        18.1320  -28.3290   55.3080 C.3   165  GLU165      0.1699
     65  C         19.3190  -28.5110   56.2560 C.2   165  GLU165      0.2592
     66  O         19.2950  -28.0410   57.3920 O.2   165  GLU165     -0.2718
     67  CB        16.9760  -29.2330   55.7410 C.3   165  GLU165      0.0402
     68  CG        15.5780  -28.6680   55.4580 C.3   165  GLU165      0.1161
     69  CD        14.4500  -29.5770   55.9360 C.2   165  GLU165      0.3649
     70  OE1       14.7280  -30.6400   56.5300 O.co2 165  GLU165     -0.2457
     71  OE2       13.2730  -29.2370   55.7030 O.co2 165  GLU165     -0.2457
     72  N         20.3500  -29.2040   55.7670 N.am  166  GLY166     -0.1957
     73  CA        21.5420  -29.4610   56.5520 C.3   166  GLY166      0.1869
     74  C         22.5470  -28.3200   56.5890 C.2   166  GLY166      0.2309
     75  O         23.5760  -28.3570   55.9050 O.2   166  GLY166     -0.2863
     76  N         26.8900  -39.1070   42.1740 N.3   199  PHE199     -0.1227
     77  CA        26.4030  -40.4780   42.1420 C.3   199  PHE199      0.1736
     78  C         24.8850  -40.5930   42.0780 C.2   199  PHE199      0.2595
     79  O         24.3560  -41.6130   41.6360 O.2   199  PHE199     -0.2718
     80  CB        26.9340  -41.2580   43.3510 C.3   199  PHE199      0.0547
     81  CG        26.5860  -40.6410   44.6820 C.ar  199  PHE199     -0.0202
     82  CD1       25.4090  -40.9920   45.3440 C.ar  199  PHE199     -0.0042
     83  CD2       27.4430  -39.7210   45.2800 C.ar  199  PHE199     -0.0042
     84  CE1       25.0930  -40.4380   46.5810 C.ar  199  PHE199     -0.0003
     85  CE2       27.1370  -39.1610   46.5200 C.ar  199  PHE199     -0.0003
     86  CZ        25.9600  -39.5200   47.1720 C.ar  199  PHE199     -0.0000
     87  N         24.1900  -39.5420   42.5060 N.am  200  ASN200     -0.1974
     88  CA        22.7350  -39.5440   42.5040 C.3   200  ASN200      0.1688
     89  C         22.1340  -39.3210   41.1170 C.2   200  ASN200      0.2292
     90  O         20.9650  -39.6260   40.8910 O.2   200  ASN200     -0.2864
     91  CB        22.1950  -38.4920   43.4850 C.3   200  ASN200      0.1181
     92  CG        20.7830  -38.8130   43.9650 C.2   200  ASN200      0.2629
     93  OD1       20.4240  -39.9820   44.1230 O.2   200  ASN200     -0.2716
     94  ND2       19.9850  -37.7770   44.2140 N.am  200  ASN200     -0.0877
@<TRIPOS>BOND
     1    90    89    2
     2    89    88    1
     3    79    78    2
     4    78    77    1
     5    78    87   am
     6    77    76    1
     7    77    80    1
     8    88    87    1
     9    88    91    1
    10     1     2    1
    11    80    81    1
    12    91    92    1
    13     3     4    2
    14     3     2    1
    15    92    93    2
    16    92    94   am
    17     7     8    1
    18     2     5    1
    19    81    83   ar
    20    81    82   ar
    21     9     8    1
    22     9    10    2
    23    83    85   ar
    24     8    11    1
    25    82    84   ar
    26    11    12    1
    27     5     6    1
    28    12    13    1
    29    50    49    2
    30    85    86   ar
    31    84    86   ar
    32    62    56    1
    33    62    61    1
    34    13    14    1
    35    49    48    1
    36    48    51    1
    37    48    47    1
    38    56    57    1
    39    14    15    1
    40    61    60    1
    41    52    51    1
    42    52    53    1
    43    57    60    1
    44    57    58    1
    45    53    54    1
    46    54    55    1
    47    58    59    2
    48    42    41    2
    49    38    36   ar
    50    38    37   ar
    51    31    30    2
    52    41    40    1
    53    36    34   ar
    54    37    35   ar
    55    45    44    2
    56    40    43    1
    57    40    39    1
    58    43    44    1
    59    44    46   am
    60    34    33   ar
    61    30    39   am
    62    30    29    1
    63    35    33   ar
    64    33    32    1
    65    63    64    1
    66    29    32    1
    67    29    28    1
    68    64    67    1
    69    64    65    1
    70    68    67    1
    71    68    69    1
    72    71    69   ar
    73    72    65   am
    74    72    73    1
    75    75    74    2
    76    69    70   ar
    77    19    18    2
    78    65    66    2
    79    73    74    1
    80    18    17    1
    81    17    20    1
    82    17    16    1
    83    20    21    1
    84    23    21   ar
    85    23    25   ar
    86    21    22   ar
    87    25    26   ar
    88    22    24   ar
    89    26    24   ar
    90    26    27    1
