@<TRIPOS>MOLECULE
tmp/1idtA02.pdb
 80 77 0 0 0
SMALL
GASTEIGER

@<TRIPOS>ATOM
      1  N          0.0130  -17.6560   50.3550 N.3    40  SER40      -0.1202
      2  CA        -1.3010  -17.3580   50.9220 C.3    40  SER40       0.2020
      3  C         -1.5410  -15.8560   50.9700 C.2    40  SER40       0.2619
      4  O         -0.6980  -15.1000   51.4610 O.2    40  SER40      -0.2717
      5  CB        -1.4450  -17.9470   52.3180 C.3    40  SER40       0.2103
      6  OG        -2.7860  -17.8210   52.7530 O.3    40  SER40      -0.2182
      7  N         -2.6800  -15.4400   50.4200 N.am   41  THR41      -0.1938
      8  CA        -3.0770  -14.0340   50.3440 C.3    41  THR41       0.2028
      9  C         -2.0120  -13.1640   49.6640 C.2    41  THR41       0.2642
     10  O         -2.0290  -11.9440   49.8000 O.2    41  THR41      -0.2714
     11  CB        -3.4190  -13.4300   51.7520 C.3    41  THR41       0.1808
     12  OG1       -2.2190  -13.1950   52.4940 O.3    41  THR41      -0.2208
     13  CG2       -4.3220  -14.3660   52.5450 C.3    41  THR41       0.0379
     14  N         -1.0950  -13.7950   48.9250 N.am   42  ASN42      -0.1971
     15  CA        -0.0060  -13.0850   48.2420 C.3    42  ASN42       0.1688
     16  C          0.8720  -12.3650   49.2790 C.2    42  ASN42       0.2292
     17  O          1.5130  -11.3580   48.9740 O.2    42  ASN42      -0.2864
     18  CB        -0.5710  -12.0690   47.2320 C.3    42  ASN42       0.1181
     19  CG         0.4510  -11.6440   46.1810 C.2    42  ASN42       0.2629
     20  OD1        0.4150  -10.5160   45.6800 O.2    42  ASN42      -0.2716
     21  ND2        1.3450  -12.5580   45.8190 N.am   42  ASN42      -0.0877
     22  N         -0.3070   -4.4940   44.8020 N.3   102  GLU102     -0.1245
     23  CA        -1.3740   -5.0580   43.9840 C.3   102  GLU102      0.1567
     24  C         -2.1670   -3.9050   43.3870 C.2   102  GLU102      0.2260
     25  O         -2.5340   -3.9290   42.2090 O.2   102  GLU102     -0.2867
     26  CB        -2.3040   -5.9480   44.8140 C.3   102  GLU102      0.0388
     27  CG        -1.7100   -7.2890   45.2310 C.3   102  GLU102      0.1160
     28  CD        -2.7570   -8.3900   45.3860 C.2   102  GLU102      0.3649
     29  OE1       -3.9520   -8.1530   45.0880 O.co2 102  GLU102     -0.2457
     30  OE2       -2.3810   -9.5110   45.7880 O.co2 102  GLU102     -0.2457
     31  N        -11.2680   -4.2310   50.4270 N.3   116  ALA116     -0.1231
     32  CA       -11.7700   -5.5880   50.6390 C.3   116  ALA116      0.1694
     33  C        -10.6320   -6.6140   50.6510 C.2   116  ALA116      0.2592
     34  O        -10.7180   -7.6430   51.3300 O.2   116  ALA116     -0.2718
     35  CB       -12.7970   -5.9440   49.5640 C.3   116  ALA116      0.0304
     36  N         -9.5680   -6.3240   49.9040 N.am  117  ASN117     -0.1974
     37  CA        -8.4140   -7.2130   49.8360 C.3   117  ASN117      0.1688
     38  C         -7.5800   -7.1120   51.1120 C.2   117  ASN117      0.2292
     39  O         -7.1090   -8.1230   51.6270 O.2   117  ASN117     -0.2864
     40  CB        -7.5560   -6.8850   48.6150 C.3   117  ASN117      0.1181
     41  CG        -6.5010   -7.9450   48.3410 C.2   117  ASN117      0.2629
     42  OD1       -6.7660   -8.9480   47.6710 O.2   117  ASN117     -0.2716
     43  ND2       -5.2970   -7.7230   48.8510 N.am  117  ASN117     -0.0877
     44  N         -9.4280   -9.0400   53.7510 N.3   120  GLY120     -0.1210
     45  CA        -9.2790  -10.4740   53.5610 C.3   120  GLY120      0.1956
     46  C         -7.9250  -10.9900   54.0210 C.2   120  GLY120      0.2611
     47  O         -7.8360  -12.0680   54.6150 O.2   120  GLY120     -0.2717
     48  N         -6.8710  -10.2280   53.7320 N.am  121  ARG121     -0.1979
     49  CA        -5.5130  -10.5980   54.1280 C.3   121  ARG121      0.1597
     50  C         -5.3710  -10.4440   55.6380 C.2   121  ARG121      0.2287
     51  O         -4.6860  -11.2300   56.2880 O.2   121  ARG121     -0.2864
     52  CB        -4.4850   -9.7210   53.4030 C.3   121  ARG121      0.0334
     53  CG        -3.0320  -10.0300   53.7470 C.3   121  ARG121      0.0492
     54  CD        -2.0660   -9.3140   52.8100 C.3   121  ARG121      0.2205
     55  NE        -2.3010   -9.7050   51.4240 N.pl3 121  ARG121     -0.0865
     56  CZ        -2.9250   -8.9470   50.5280 C.cat 121  ARG121      0.5346
     57  NH1       -3.3700   -7.7420   50.8660 N.pl3 121  ARG121      0.1354
     58  NH2       -3.1650   -9.4190   49.3130 N.pl3 121  ARG121      0.1354
     59  N         -7.6840  -10.9480   57.8070 N.3   123  PHE123     -0.1227
     60  CA        -8.3770  -12.0550   58.4610 C.3   123  PHE123      0.1736
     61  C         -7.4140  -13.2040   58.7570 C.2   123  PHE123      0.2595
     62  O         -7.2730  -13.6190   59.9110 O.2   123  PHE123     -0.2718
     63  CB        -9.5490  -12.5520   57.6060 C.3   123  PHE123      0.0547
     64  CG       -10.2260  -13.7750   58.1630 C.ar  123  PHE123     -0.0202
     65  CD1      -10.9180  -13.7160   59.3700 C.ar  123  PHE123     -0.0042
     66  CD2      -10.1420  -14.9950   57.4970 C.ar  123  PHE123     -0.0042
     67  CE1      -11.5150  -14.8570   59.9090 C.ar  123  PHE123     -0.0003
     68  CE2      -10.7340  -16.1410   58.0250 C.ar  123  PHE123     -0.0003
     69  CZ       -11.4210  -16.0740   59.2330 C.ar  123  PHE123     -0.0000
     70  N         -6.7420  -13.6990   57.7180 N.am  124  PHE124     -0.1976
     71  CA        -5.7880  -14.7960   57.8660 C.3   124  PHE124      0.1639
     72  C         -4.5550  -14.4090   58.6750 C.2   124  PHE124      0.2290
     73  O         -4.0610  -15.2040   59.4700 O.2   124  PHE124     -0.2864
     74  CB        -5.3590  -15.3250   56.4960 C.3   124  PHE124      0.0560
     75  CG        -6.4410  -16.0610   55.7700 C.ar  124  PHE124     -0.0200
     76  CD1       -6.4620  -17.4510   55.7560 C.ar  124  PHE124     -0.0042
     77  CD2       -7.4470  -15.3690   55.1140 C.ar  124  PHE124     -0.0042
     78  CE1       -7.4750  -18.1440   55.0990 C.ar  124  PHE124     -0.0003
     79  CE2       -8.4620  -16.0510   54.4570 C.ar  124  PHE124     -0.0003
     80  CZ        -8.4770  -17.4410   54.4480 C.ar  124  PHE124     -0.0000
@<TRIPOS>BOND
     1    25    24    2
     2    24    23    1
     3    23    22    1
     4    23    26    1
     5    26    27    1
     6    29    28   ar
     7    27    28    1
     8    28    30   ar
     9    20    19    2
    10    21    19   am
    11    19    18    1
    12    18    15    1
    13    42    41    2
    14    15    14    1
    15    15    16    1
    16    41    40    1
    17    41    43   am
    18    40    37    1
    19    14     9   am
    20    17    16    2
    21    58    56    1
    22    35    32    1
    23     9    10    2
    24     9     8    1
    25    37    36    1
    26    37    38    1
    27    36    33   am
    28     8     7    1
    29     8    11    1
    30     1     2    1
    31     7     3   am
    32    31    32    1
    33    56    57    1
    34    56    55    2
    35    32    33    1
    36    33    34    2
    37     2     3    1
    38     2     5    1
    39     3     4    2
    40    38    39    2
    41    55    54    1
    42    11    12    1
    43    11    13    1
    44     5     6    1
    45    54    53    1
    46    52    53    1
    47    52    49    1
    48    45    44    1
    49    45    46    1
    50    48    46   am
    51    48    49    1
    52    46    47    2
    53    49    50    1
    54    80    79   ar
    55    80    78   ar
    56    79    77   ar
    57    78    76   ar
    58    77    75   ar
    59    50    51    2
    60    76    75   ar
    61    75    74    1
    62    74    71    1
    63    66    68   ar
    64    66    64   ar
    65    63    64    1
    66    63    60    1
    67    70    71    1
    68    70    61   am
    69    59    60    1
    70    71    72    1
    71    68    69   ar
    72    64    65   ar
    73    60    61    1
    74    72    73    2
    75    61    62    2
    76    69    67   ar
    77    65    67   ar
