@<TRIPOS>MOLECULE
tmp/1ieiA01.pdb
 216 219 0 0 0
SMALL
GASTEIGER

@<TRIPOS>ATOM
      1  N         -8.1860   -3.0220    0.2810 N.3    20  TRP20      -0.1241
      2  CA        -8.7590   -2.4630    1.5730 C.3    20  TRP20       0.1605
      3  C        -10.1430   -1.7740    1.3750 C.2    20  TRP20       0.2264
      4  O        -10.2770   -0.9050    0.6350 O.2    20  TRP20      -0.2867
      5  CB        -7.7810   -1.4600    2.2580 C.3    20  TRP20       0.0550
      6  CG        -8.2520   -1.1860    3.6370 C.ar   20  TRP20       0.0003
      7  CD1       -8.8250   -2.1350    4.4780 C.ar   20  TRP20       0.0946
      8  CD2       -8.3990    0.0890    4.3720 C.ar   20  TRP20       0.0152
      9  NE1       -9.3350   -1.5390    5.6060 N.ar   20  TRP20      -0.2442
     10  CE2       -9.1100   -0.1740    5.5840 C.ar   20  TRP20       0.0810
     11  CE3       -7.9430    1.3900    4.1230 C.ar   20  TRP20       0.0012
     12  CZ2       -9.3300    0.7770    6.5250 C.ar   20  TRP20       0.0191
     13  CZ3       -8.1130    2.3780    5.0510 C.ar   20  TRP20       0.0001
     14  CH2       -8.8300    2.0600    6.2440 C.ar   20  TRP20       0.0015
     15  N         -4.9950   -8.6620    7.2950 N.3    47  VAL47      -0.1231
     16  CA        -6.0250   -7.8830    7.9470 C.3    47  VAL47       0.1692
     17  C         -7.3660   -7.5160    7.2040 C.2    47  VAL47       0.2592
     18  O         -8.4730   -7.4550    7.7260 O.2    47  VAL47      -0.2718
     19  CB        -5.3720   -6.6780    8.5820 C.3    47  VAL47       0.0266
     20  CG1       -5.1470   -5.5260    7.6920 C.3    47  VAL47       0.0020
     21  CG2       -6.0400   -6.5040    9.9540 C.3    47  VAL47       0.0020
     22  N         -7.2210   -7.3430    5.8890 N.am   48  TYR48      -0.1962
     23  CA        -8.2890   -6.9230    5.0430 C.3    48  TYR48       0.1771
     24  C         -9.5000   -7.8910    5.1200 C.2    48  TYR48       0.2619
     25  O        -10.6020   -7.6130    4.8330 O.2    48  TYR48      -0.2715
     26  CB        -7.6850   -6.7740    3.6270 C.3    48  TYR48       0.0574
     27  CG        -6.7430   -5.5880    3.5210 C.ar   48  TYR48      -0.0198
     28  CD1       -6.6040   -4.6380    4.6120 C.ar   48  TYR48      -0.0009
     29  CD2       -6.0390   -5.3960    2.3400 C.ar   48  TYR48      -0.0009
     30  CE1       -5.5850   -3.6530    4.4910 C.ar   48  TYR48       0.0417
     31  CE2       -5.1350   -4.3020    2.1840 C.ar   48  TYR48       0.0417
     32  CZ        -4.8930   -3.4430    3.3050 C.ar   48  TYR48       0.1957
     33  OH        -3.9980   -2.3820    3.2650 O.3    48  TYR48      -0.2866
     34  N         -9.0520   -9.1210    5.6230 N.am   49  GLN49      -0.1977
     35  CA        -9.9710  -10.2470    5.8670 C.3    49  GLN49       0.1601
     36  C        -10.6370  -10.8420    4.6290 C.2    49  GLN49       0.2287
     37  O        -11.5070  -11.6580    4.7320 O.2    49  GLN49      -0.2864
     38  CB       -11.0330   -9.9370    6.9200 C.3    49  GLN49       0.0394
     39  CG       -10.5160   -9.8130    8.3500 C.3    49  GLN49       0.0908
     40  CD       -11.6140   -9.2220    9.2340 C.2    49  GLN49       0.2608
     41  OE1      -11.5290   -8.1910    9.9090 O.2    49  GLN49      -0.2717
     42  NE2      -12.7160   -9.9200    9.2200 N.am   49  GLN49      -0.0878
     43  N          0.8760   -8.3770    3.3350 N.3    77  LYS77      -0.1245
     44  CA         1.5380   -7.8890    4.5210 C.3    77  LYS77       0.1561
     45  C          1.3170   -8.7980    5.6460 C.2    77  LYS77       0.2260
     46  O          0.3230   -9.4450    5.7680 O.2    77  LYS77      -0.2867
     47  CB         1.0720   -6.5100    4.9290 C.3    77  LYS77       0.0271
     48  CG         0.3680   -5.5590    3.9230 C.3    77  LYS77       0.0035
     49  CD         0.9910   -4.1820    3.7770 C.3    77  LYS77       0.0206
     50  CE         0.8440   -3.5360    2.4220 C.3    77  LYS77       0.1093
     51  NZ        -0.3960   -2.8740    2.1470 N.3    77  LYS77      -0.1314
     52  N          0.6510   -8.7370    9.5140 N.3    79  TRP79      -0.1227
     53  CA         0.0020   -8.2120   10.7140 C.3    79  TRP79       0.1737
     54  C          0.8880   -8.0850   11.9060 C.2    79  TRP79       0.2595
     55  O          1.8690   -8.7680   12.1580 O.2    79  TRP79      -0.2718
     56  CB        -1.4120   -8.8430   10.9300 C.3    79  TRP79       0.0564
     57  CG        -2.3210   -7.7730   11.5900 C.ar   79  TRP79       0.0003
     58  CD1       -2.9320   -7.8860   12.8220 C.ar   79  TRP79       0.0946
     59  CD2       -2.4460   -6.4040   11.2520 C.ar   79  TRP79       0.0152
     60  NE1       -3.3630   -6.7010   13.3350 N.ar   79  TRP79      -0.2442
     61  CE2       -3.0780   -5.7460   12.3570 C.ar   79  TRP79       0.0810
     62  CE3       -2.0420   -5.6150   10.1350 C.ar   79  TRP79       0.0012
     63  CZ2       -3.3240   -4.3100   12.3150 C.ar   79  TRP79       0.0191
     64  CZ3       -2.2660   -4.2100   10.1020 C.ar   79  TRP79       0.0001
     65  CH2       -2.9210   -3.5600   11.1850 C.ar   79  TRP79       0.0015
     66  N          0.4400   -6.9890   12.6330 N.am   80  CYS80      -0.1970
     67  CA         1.0450   -6.4070   13.8830 C.3    80  CYS80       0.1712
     68  C          1.3130   -7.4220   15.0350 C.2    80  CYS80       0.2296
     69  O          2.2750   -7.3910   15.7200 O.2    80  CYS80      -0.2864
     70  CB         0.2000   -5.1310   14.2580 C.3    80  CYS80       0.0983
     71  SG         0.4990   -3.6070   13.2340 S.3    80  CYS80      -0.0798
     72  N          3.4980   -4.7590    8.0460 N.3   110  HIS110     -0.1226
     73  CA         2.3390   -3.9230    7.6880 C.3   110  HIS110      0.1752
     74  C          2.4740   -2.5240    8.2490 C.2   110  HIS110      0.2596
     75  O          2.2910   -1.5460    7.5360 O.2   110  HIS110     -0.2718
     76  CB         0.9640   -4.5090    8.0640 C.3   110  HIS110      0.0759
     77  CG        -0.2260   -4.0730    7.2120 C.ar  110  HIS110      0.0818
     78  ND1       -1.3050   -4.8860    7.0060 N.ar  110  HIS110     -0.2268
     79  CD2       -0.4060   -2.9010    6.4650 C.ar  110  HIS110      0.1154
     80  CE1       -2.1330   -4.2450    6.1500 C.ar  110  HIS110      0.1986
     81  NE2       -1.5820   -3.0580    5.7960 N.ar  110  HIS110     -0.2212
     82  N          2.8880   -2.5550    9.5020 N.am  111  TRP111     -0.1976
     83  CA         3.2860   -1.3760   10.3430 C.3   111  TRP111      0.1640
     84  C          4.6750   -1.5300   10.9450 C.2   111  TRP111      0.2290
     85  O          5.2300   -2.6180   11.1940 O.2   111  TRP111     -0.2864
     86  CB         2.1710   -1.1080   11.4840 C.3   111  TRP111      0.0576
     87  CG         0.9230   -0.6600   10.8080 C.ar  111  TRP111      0.0006
     88  CD1       -0.0740   -1.4660   10.2900 C.ar  111  TRP111      0.0946
     89  CD2        0.5460    0.6820   10.3960 C.ar  111  TRP111      0.0152
     90  NE1       -1.0150   -0.7630    9.6060 N.ar  111  TRP111     -0.2442
     91  CE2       -0.6530    0.5820    9.6540 C.ar  111  TRP111      0.0810
     92  CE3        1.1080    1.9680   10.6420 C.ar  111  TRP111      0.0012
     93  CZ2       -1.2720    1.7450    9.1450 C.ar  111  TRP111      0.0191
     94  CZ3        0.4840    3.1140   10.1560 C.ar  111  TRP111      0.0001
     95  CH2       -0.7030    3.0010    9.3860 C.ar  111  TRP111      0.0015
     96  N          5.0050   -1.6680   13.7520 N.3   113  THR113     -0.1218
     97  CA         4.2620   -1.6640   14.9800 C.3   113  THR113      0.1862
     98  C          3.7460   -3.0350   15.3860 C.2   113  THR113      0.2287
     99  O          2.9090   -3.7670   14.8230 O.2   113  THR113     -0.2866
    100  CB         3.1810   -0.5230   15.0800 C.3   113  THR113      0.1770
    101  OG1        3.7360    0.6160   15.7680 O.3   113  THR113     -0.2211
    102  CG2        1.9460   -0.9270   15.8430 C.3   113  THR113      0.0375
    103  N          2.2540   -5.6230   17.7260 N.3   115  PHE115     -0.1241
    104  CA         1.4770   -5.8130   18.9090 C.3   115  PHE115      0.1605
    105  C          1.2410   -7.1940   19.4480 C.2   115  PHE115      0.2264
    106  O          1.6560   -8.1670   18.7930 O.2   115  PHE115     -0.2867
    107  CB         0.1530   -4.9070   18.8630 C.3   115  PHE115      0.0534
    108  CG        -0.8640   -5.3450   17.9160 C.ar  115  PHE115     -0.0203
    109  CD1       -1.4060   -4.3600   17.1610 C.ar  115  PHE115     -0.0042
    110  CD2       -1.1940   -6.7070   17.8470 C.ar  115  PHE115     -0.0042
    111  CE1       -2.5350   -4.6940   16.3250 C.ar  115  PHE115     -0.0003
    112  CE2       -2.3020   -7.0570   17.0360 C.ar  115  PHE115     -0.0003
    113  CZ        -2.9720   -6.0480   16.3110 C.ar  115  PHE115     -0.0000
    114  N         -6.8820   -9.1070   16.0160 N.3   121  PHE121     -0.1227
    115  CA        -6.2260   -8.0540   15.2440 C.3   121  PHE121      0.1736
    116  C         -5.8470   -6.6450   15.8350 C.2   121  PHE121      0.2595
    117  O         -5.1890   -5.8540   15.2030 O.2   121  PHE121     -0.2718
    118  CB        -7.1230   -7.7930   14.0910 C.3   121  PHE121      0.0547
    119  CG        -7.3050   -8.8650   13.0740 C.ar  121  PHE121     -0.0202
    120  CD1       -6.2570   -9.7060   12.7030 C.ar  121  PHE121     -0.0042
    121  CD2       -8.5210   -8.8830   12.3180 C.ar  121  PHE121     -0.0042
    122  CE1       -6.3220  -10.4780   11.4770 C.ar  121  PHE121     -0.0003
    123  CE2       -8.6220   -9.6350   11.1160 C.ar  121  PHE121     -0.0003
    124  CZ        -7.4520  -10.3760   10.6800 C.ar  121  PHE121     -0.0000
    125  N         -6.2400   -6.3190   17.0240 N.am  122  PHE122     -0.1976
    126  CA        -5.9080   -4.9800   17.6870 C.3   122  PHE122      0.1639
    127  C         -6.1890   -5.1390   19.1970 C.2   122  PHE122      0.2290
    128  O         -7.3040   -4.9420   19.6990 O.2   122  PHE122     -0.2864
    129  CB        -6.8320   -3.7580   17.2340 C.3   122  PHE122      0.0560
    130  CG        -6.6320   -3.0620   15.8920 C.ar  122  PHE122     -0.0200
    131  CD1       -7.4340   -3.4630   14.7250 C.ar  122  PHE122     -0.0042
    132  CD2       -5.6480   -2.0590   15.7720 C.ar  122  PHE122     -0.0042
    133  CE1       -7.1260   -2.9660   13.4650 C.ar  122  PHE122     -0.0003
    134  CE2       -5.4090   -1.5280   14.4750 C.ar  122  PHE122     -0.0003
    135  CZ        -6.1250   -2.0190   13.3330 C.ar  122  PHE122     -0.0000
    136  N         -0.1300    4.6680   -1.0440 N.3   209  TYR209     -0.1241
    137  CA        -1.5160    4.3170   -0.6910 C.3   209  TYR209      0.1605
    138  C         -2.4560    5.4920   -0.3970 C.2   209  TYR209      0.2264
    139  O         -1.9910    6.6060   -0.2320 O.2   209  TYR209     -0.2867
    140  CB        -1.6780    3.2380    0.3760 C.3   209  TYR209      0.0534
    141  CG        -1.4070    3.6550    1.8220 C.ar  209  TYR209     -0.0201
    142  CD1       -2.4700    4.2440    2.5720 C.ar  209  TYR209     -0.0009
    143  CD2       -0.1680    3.3900    2.4320 C.ar  209  TYR209     -0.0009
    144  CE1       -2.3300    4.4780    3.9410 C.ar  209  TYR209      0.0417
    145  CE2       -0.0270    3.5540    3.8130 C.ar  209  TYR209      0.0417
    146  CZ        -1.1090    4.0550    4.5730 C.ar  209  TYR209      0.1957
    147  OH        -1.0050    4.1700    5.9890 O.3   209  TYR209     -0.2866
    148  N        -13.3940    3.7930    7.7320 N.3   218  PRO218     -0.2102
    149  CA       -14.1190    3.5990    9.0090 C.3   218  PRO218      0.1504
    150  C        -14.3280    4.7480   10.0400 C.2   218  PRO218      0.2575
    151  O        -15.3200    4.8020   10.7260 O.2   218  PRO218     -0.2718
    152  CB       -13.3550    2.3100    9.5730 C.3   218  PRO218      0.0282
    153  CG       -13.2220    1.4250    8.3720 C.3   218  PRO218      0.0208
    154  CD       -12.9700    2.4520    7.2430 C.3   218  PRO218      0.0893
    155  N        -13.3090    5.6070   10.1380 N.am  219  TRP219     -0.1977
    156  CA       -13.4050    6.8910   10.7670 C.3   219  TRP219      0.1640
    157  C        -13.8330    8.0120    9.8290 C.2   219  TRP219      0.2290
    158  O        -13.2980    9.0770    9.5770 O.2   219  TRP219     -0.2864
    159  CB       -12.0950    7.1300   11.5660 C.3   219  TRP219      0.0576
    160  CG       -10.8350    7.1010   10.7240 C.ar  219  TRP219      0.0006
    161  CD1      -10.2240    8.2290   10.2100 C.ar  219  TRP219      0.0946
    162  CD2      -10.0510    5.9520   10.3060 C.ar  219  TRP219      0.0152
    163  NE1       -9.1350    7.8460    9.5190 N.ar  219  TRP219     -0.2442
    164  CE2       -8.9560    6.4410    9.5360 C.ar  219  TRP219      0.0810
    165  CE3      -10.1360    4.5670   10.4900 C.ar  219  TRP219      0.0012
    166  CZ2       -7.9510    5.5870    8.9840 C.ar  219  TRP219      0.0191
    167  CZ3       -9.1370    3.6670    9.9590 C.ar  219  TRP219      0.0001
    168  CH2       -8.0350    4.1940    9.2080 C.ar  219  TRP219      0.0015
    169  N         -4.6300    7.9370    7.6570 N.3   298  CYS298     -0.1221
    170  CA        -4.6170    6.6240    8.3060 C.3   298  CYS298      0.1808
    171  C         -4.2070    6.5040    9.7580 C.2   298  CYS298      0.2601
    172  O         -4.8260    5.7390   10.5050 O.2   298  CYS298     -0.2717
    173  CB        -3.9000    5.6150    7.4490 C.3   298  CYS298      0.0970
    174  SG        -5.0610    4.9220    6.2190 S.3   298  CYS298     -0.0800
    175  N         -3.2820    7.3420   10.1570 N.am  299  ALA299     -0.1965
    176  CA        -3.4190    8.0130   11.4690 C.3   299  ALA299      0.1728
    177  C         -3.8420    7.4200   12.8460 C.2   299  ALA299      0.2616
    178  O         -3.2470    7.9120   13.7750 O.2   299  ALA299     -0.2715
    179  CB        -4.1940    9.3720   11.3200 C.3   299  ALA299      0.0334
    180  N         -4.7720    6.4560   13.0760 N.am  300  LEU300     -0.1977
    181  CA        -4.8730    5.6830   14.3730 C.3   300  LEU300      0.1596
    182  C         -4.2350    6.0720   15.7230 C.2   300  LEU300      0.2287
    183  O         -3.0520    6.2210   15.9760 O.2   300  LEU300     -0.2864
    184  CB        -4.5770    4.1340   14.2840 C.3   300  LEU300      0.0297
    185  CG        -5.4080    3.1810   15.2560 C.3   300  LEU300      0.0022
    186  CD1       -5.4780    1.7670   14.7880 C.3   300  LEU300      0.0001
    187  CD2       -4.8420    3.0510   16.6370 C.3   300  LEU300      0.0001
    188  N         -2.7530    3.9890   19.2840 N.3   303  CYS303     -0.1235
    189  CA        -1.4210    3.4730   19.2700 C.3   303  CYS303      0.1677
    190  C         -0.3210    4.5300   19.4660 C.2   303  CYS303      0.2270
    191  O          0.8900    4.3360   19.4250 O.2   303  CYS303     -0.2867
    192  CB        -1.2330    2.5790   18.0370 C.3   303  CYS303      0.0956
    193  SG        -2.3340    1.1710   17.9930 S.3   303  CYS303     -0.0801
    194  N          6.2060    4.3910   16.4420 N.3   309  TYR309     -0.1241
    195  CA         5.0700    5.0110   15.9110 C.3   309  TYR309      0.1605
    196  C          5.5220    5.7520   14.7180 C.2   309  TYR309      0.2264
    197  O          6.3870    6.5660   14.8830 O.2   309  TYR309     -0.2867
    198  CB         4.4040    5.9010   17.0470 C.3   309  TYR309      0.0534
    199  CG         2.9350    5.5980   16.9450 C.ar  309  TYR309     -0.0201
    200  CD1        2.6230    4.2230   17.0150 C.ar  309  TYR309     -0.0009
    201  CD2        1.9560    6.5840   16.5770 C.ar  309  TYR309     -0.0009
    202  CE1        1.3880    3.7440   16.4980 C.ar  309  TYR309      0.0417
    203  CE2        0.7220    6.0850   16.0300 C.ar  309  TYR309      0.0417
    204  CZ         0.5120    4.6710   15.9580 C.ar  309  TYR309      0.1957
    205  OH        -0.5640    4.1480   15.3650 O.3   309  TYR309     -0.2866
    206  N          4.6000    8.1480   12.9610 N.3   311  PHE311     -0.1241
    207  CA         4.2190    9.5600   12.7650 C.3   311  PHE311      0.1605
    208  C          4.5480   10.4790   13.9890 C.2   311  PHE311      0.2264
    209  O          3.7140   11.1750   14.6540 O.2   311  PHE311     -0.2867
    210  CB         2.6350    9.6930   12.3020 C.3   311  PHE311      0.0534
    211  CG         2.1670    8.6470   11.3060 C.ar  311  PHE311     -0.0203
    212  CD1        2.9960    8.2810   10.1460 C.ar  311  PHE311     -0.0042
    213  CD2        0.9560    7.9640   11.5540 C.ar  311  PHE311     -0.0042
    214  CE1        2.5580    7.1820    9.3230 C.ar  311  PHE311     -0.0003
    215  CE2        0.5790    6.8760   10.7120 C.ar  311  PHE311     -0.0003
    216  CZ         1.3890    6.4400    9.6320 C.ar  311  PHE311     -0.0000
@<TRIPOS>BOND
     1   136   137    1
     2   137   138    1
     3   137   140    1
     4   138   139    2
     5     1     2    1
     6   140   141    1
     7     4     3    2
     8     3     2    1
     9     2     5    1
    10   141   143   ar
    11   141   142   ar
    12    51    50    1
    13    31    29   ar
    14    31    32   ar
    15     5     6    1
    16    29    27   ar
    17    50    49    1
    18   143   145   ar
    19   142   144   ar
    20    33    32    1
    21    32    30   ar
    22    43    44    1
    23    27    26    1
    24    27    28   ar
    25    26    23    1
    26     6     8   ar
    27     6     7   ar
    28    49    48    1
    29   145   146   ar
    30    48    47    1
    31   144   146   ar
    32    11     8   ar
    33    11    13   ar
    34     8    10   ar
    35     7     9   ar
    36    30    28   ar
    37    44    47    1
    38    44    45    1
    39   146   147    1
    40    36    37    2
    41    36    35    1
    42    25    24    2
    43    23    24    1
    44    23    22    1
    45    13    14   ar
    46    24    34   am
    47    10     9   ar
    48    10    12   ar
    49    34    35    1
    50    45    46    2
    51    81    80   ar
    52    81    79   ar
    53    35    38    1
    54    22    17   am
    55    80    78   ar
    56   174   173    1
    57    14    12   ar
    58    79    77   ar
    59    38    39    1
    60    78    77   ar
    61    17    18    2
    62    17    16    1
    63    77    76    1
    64   154   148    1
    65   154   153    1
    66    15    16    1
    67   173   170    1
    68    75    74    2
    69   169   170    1
    70    73    72    1
    71    73    76    1
    72    73    74    1
    73    20    19    1
    74   148   149    1
    75    16    19    1
    76    74    82   am
    77   170   171    1
    78    39    40    1
    79   153   152    1
    80    19    21    1
    81   166   168   ar
    82   166   164   ar
    83   149   152    1
    84   149   150    1
    85    93    95   ar
    86    93    91   ar
    87   168   167   ar
    88    42    40   am
    89    40    41    2
    90   214   216   ar
    91   214   212   ar
    92    95    94   ar
    93    82    83    1
    94    52    53    1
    95   163   164   ar
    96   163   161   ar
    97   164   162   ar
    98   158   157    2
    99    90    91   ar
   100    90    88   ar
   101   216   215   ar
   102    91    89   ar
   103   171   175   am
   104   171   172    2
   105   157   156    1
   106   167   165   ar
   107   150   155   am
   108   150   151    2
   109    64    62   ar
   110    64    65   ar
   111    62    59   ar
   112   155   156    1
   113   212   211   ar
   114    94    92   ar
   115   175   176    1
   116   161   160   ar
   117    88    87   ar
   118   162   165   ar
   119   162   160   ar
   120    83    84    1
   121    83    86    1
   122    89    92   ar
   123    89    87   ar
   124   124   123   ar
   125   124   122   ar
   126   215   213   ar
   127    53    56    1
   128    53    54    1
   129   160   159    1
   130   156   159    1
   131    87    86    1
   132    56    57    1
   133    84    85    2
   134   123   121   ar
   135    65    63   ar
   136    59    57   ar
   137    59    61   ar
   138   211   213   ar
   139   211   210    1
   140   179   176    1
   141   176   177    1
   142   122   120   ar
   143    57    58   ar
   144    54    55    2
   145    54    66   am
   146   210   207    1
   147    63    61   ar
   148   121   119   ar
   149    61    60   ar
   150    66    67    1
   151   120   119   ar
   152   207   206    1
   153   207   208    1
   154    58    60   ar
   155   177   180   am
   156   177   178    2
   157   119   118    1
   158   180   181    1
   159    71    70    1
   160   135   133   ar
   161   135   134   ar
   162   133   131   ar
   163    96    97    1
   164    67    70    1
   165    67    68    1
   166   208   209    2
   167   118   115    1
   168   184   181    1
   169   184   185    1
   170   181   182    1
   171   134   132   ar
   172   196   197    2
   173   196   195    1
   174   131   130   ar
   175   186   185    1
   176    99    98    2
   177    97   100    1
   178    97    98    1
   179    68    69    2
   180   100   101    1
   181   100   102    1
   182   117   116    2
   183   115   116    1
   184   115   114    1
   185   185   187    1
   186   205   204    1
   187   182   183    2
   188   132   130   ar
   189   116   125   am
   190   130   129    1
   191   195   194    1
   192   195   198    1
   193   204   203   ar
   194   204   202   ar
   195   203   201   ar
   196   113   111   ar
   197   113   112   ar
   198   111   109   ar
   199   202   200   ar
   200   201   199   ar
   201   199   200   ar
   202   199   198    1
   203   125   126    1
   204   112   110   ar
   205   109   108   ar
   206   129   126    1
   207   126   127    1
   208   103   104    1
   209   110   108   ar
   210   108   107    1
   211   193   192    1
   212   192   189    1
   213   106   105    2
   214   107   104    1
   215   104   105    1
   216   127   128    2
   217   189   188    1
   218   189   190    1
   219   191   190    2
