@<TRIPOS>MOLECULE
tmp/1ielB00.pdb
 156 146 0 0 0
SMALL
GASTEIGER

@<TRIPOS>ATOM
      1  N         78.6480   -1.6380   31.4020 N.3    60  GLY60      -0.1210
      2  CA        78.6520   -0.2120   31.1230 C.3    60  GLY60       0.1956
      3  C         77.2390    0.2430   30.7820 C.2    60  GLY60       0.2612
      4  O         76.2650   -0.2590   31.3710 O.2    60  GLY60      -0.2717
      5  N         77.1050    1.1580   29.8180 N.am   61  SER61      -0.1952
      6  CA        75.7860    1.6830   29.4440 C.3    61  SER61       0.1924
      7  C         74.8230    0.7100   28.7940 C.2    61  SER61       0.2314
      8  O         73.6730    1.0520   28.5790 O.2    61  SER61      -0.2863
      9  CB        75.9100    2.9230   28.5740 C.3    61  SER61       0.2116
     10  OG        76.5180    3.9210   29.3370 O.3    61  SER61      -0.2180
     11  N         75.4730   14.6720   30.8970 N.3   116  LEU116     -0.1231
     12  CA        75.9730   13.3520   30.5260 C.3   116  LEU116      0.1693
     13  C         76.2680   12.5250   31.7630 C.2   116  LEU116      0.2591
     14  O         75.9570   11.3230   31.8270 O.2   116  LEU116     -0.2718
     15  CB        77.2270   13.4900   29.6810 C.3   116  LEU116      0.0284
     16  CG        77.9680   12.1960   29.3690 C.3   116  LEU116      0.0019
     17  CD1       77.0230   11.2170   28.6570 C.3   116  LEU116      0.0001
     18  CD2       79.1760   12.5100   28.4940 C.3   116  LEU116      0.0001
     19  N         76.8390   13.1740   32.7680 N.am  117  GLN117     -0.1979
     20  CA        77.1600   12.4680   33.9880 C.3   117  GLN117      0.1601
     21  C         76.6640   13.1940   35.2110 C.2   117  GLN117      0.2287
     22  O         76.5190   14.4080   35.2170 O.2   117  GLN117     -0.2864
     23  CB        78.6770   12.2610   34.1170 C.3   117  GLN117      0.0394
     24  CG        79.2560   11.2630   33.1210 C.3   117  GLN117      0.0908
     25  CD        80.7760   11.1540   33.1970 C.2   117  GLN117      0.2608
     26  OE1       81.3410   10.8060   34.2450 O.2   117  GLN117     -0.2717
     27  NE2       81.4490   11.4500   32.0830 N.am  117  GLN117     -0.0878
     28  N         72.1290   12.4700   25.0220 N.3   147  TYR147     -0.1241
     29  CA        72.3880   11.2320   25.7680 C.3   147  TYR147      0.1605
     30  C         72.9090   11.5960   27.1530 C.2   147  TYR147      0.2264
     31  O         73.8070   12.3920   27.2660 O.2   147  TYR147     -0.2867
     32  CB        73.3990   10.3920   25.0080 C.3   147  TYR147      0.0534
     33  CG        73.6960    9.0690   25.6450 C.ar  147  TYR147     -0.0201
     34  CD1       74.7850    8.9100   26.4880 C.ar  147  TYR147     -0.0009
     35  CD2       72.9150    7.9480   25.3610 C.ar  147  TYR147     -0.0009
     36  CE1       75.1070    7.6540   27.0270 C.ar  147  TYR147      0.0417
     37  CE2       73.2220    6.7010   25.8940 C.ar  147  TYR147      0.0417
     38  CZ        74.3230    6.5600   26.7230 C.ar  147  TYR147      0.1957
     39  OH        74.6410    5.3310   27.2330 O.3   147  TYR147     -0.2866
     40  N         73.5310    9.9550   31.4170 N.3   149  ASN149     -0.1240
     41  CA        73.3460    9.0180   32.5270 C.3   149  ASN149      0.1653
     42  C         72.3890    9.6320   33.5460 C.2   149  ASN149      0.2266
     43  O         71.5900    8.9130   34.1610 O.2   149  ASN149     -0.2867
     44  CB        74.6630    8.7260   33.2430 C.3   149  ASN149      0.1155
     45  CG        75.6070    7.9340   32.4050 C.2   149  ASN149      0.2627
     46  OD1       75.1960    7.2770   31.4340 O.2   149  ASN149     -0.2716
     47  ND2       76.8970    7.9760   32.7630 N.am  149  ASN149     -0.0877
     48  N         92.8760   -0.6040   31.9200 N.3   201  ARG201     -0.1245
     49  CA        93.0610    0.7580   31.4290 C.3   201  ARG201      0.1563
     50  C         94.5220    1.1220   31.6790 C.2   201  ARG201      0.2260
     51  O         94.9820    1.1320   32.8180 O.2   201  ARG201     -0.2867
     52  CB        92.1570    1.7320   32.1860 C.3   201  ARG201      0.0307
     53  CG        92.1590    3.1500   31.6080 C.3   201  ARG201      0.0489
     54  CD        91.1900    4.0570   32.3530 C.3   201  ARG201      0.2205
     55  NE        91.1830    5.4140   31.8080 N.pl3 201  ARG201     -0.0865
     56  CZ        90.4570    6.4180   32.3000 C.cat 201  ARG201      0.5346
     57  NH1       89.6690    6.2220   33.3520 N.pl3 201  ARG201      0.1354
     58  NH2       90.5210    7.6270   31.7500 N.pl3 201  ARG201      0.1354
     59  N         84.7280   -0.9200   38.0060 N.3   208  VAL208     -0.1231
     60  CA        84.0360    0.3700   38.0450 C.3   208  VAL208      0.1692
     61  C         83.8640    0.8270   39.4910 C.2   208  VAL208      0.2592
     62  O         83.6640    0.0170   40.3750 O.2   208  VAL208     -0.2718
     63  CB        82.6540    0.2620   37.3890 C.3   208  VAL208      0.0266
     64  CG1       81.7840   -0.6980   38.1890 C.3   208  VAL208      0.0020
     65  CG2       82.0020    1.6430   37.2980 C.3   208  VAL208      0.0020
     66  N         83.9550    2.1260   39.7400 N.am  209  SER209     -0.1952
     67  CA        83.7950    2.6230   41.1090 C.3   209  SER209      0.1924
     68  C         82.3740    3.1300   41.3800 C.2   209  SER209      0.2314
     69  O         81.6410    3.4970   40.4600 O.2   209  SER209     -0.2863
     70  CB        84.8120    3.7290   41.3850 C.3   209  SER209      0.2116
     71  OG        84.7660    4.7230   40.3790 O.3   209  SER209     -0.2180
     72  N         74.7360    2.3900   34.4130 N.3   218  TYR218     -0.1241
     73  CA        75.8520    1.6100   33.8780 C.3   218  TYR218      0.1605
     74  C         76.3840    0.5300   34.8130 C.2   218  TYR218      0.2264
     75  O         77.4940    0.0160   34.6160 O.2   218  TYR218     -0.2867
     76  CB        76.9880    2.5710   33.5390 C.3   218  TYR218      0.0534
     77  CG        77.4200    3.4220   34.7070 C.ar  218  TYR218     -0.0201
     78  CD1       78.3530    2.9620   35.6200 C.ar  218  TYR218     -0.0009
     79  CD2       76.9070    4.7100   34.8840 C.ar  218  TYR218     -0.0009
     80  CE1       78.7710    3.7590   36.6840 C.ar  218  TYR218      0.0417
     81  CE2       77.3240    5.5190   35.9400 C.ar  218  TYR218      0.0417
     82  CZ        78.2540    5.0350   36.8350 C.ar  218  TYR218      0.1957
     83  OH        78.6740    5.8240   37.8790 O.3   218  TYR218     -0.2866
     84  N         81.6210    9.2810   19.6250 N.3   286  ASN286     -0.1240
     85  CA        81.1480   10.2430   20.6160 C.3   286  ASN286      0.1653
     86  C         80.8440   11.6620   20.1720 C.2   286  ASN286      0.2266
     87  O         79.9960   12.3170   20.7750 O.2   286  ASN286     -0.2867
     88  CB        82.1040   10.2880   21.8010 C.3   286  ASN286      0.1155
     89  CG        81.8780    9.1500   22.7580 C.2   286  ASN286      0.2627
     90  OD1       82.5510    9.0480   23.7780 O.2   286  ASN286     -0.2716
     91  ND2       80.9210    8.2840   22.4400 N.am  286  ASN286     -0.0877
     92  N         77.2050   10.6430   18.9070 N.3   289  ALA289     -0.1231
     93  CA        76.3490   10.0160   19.9110 C.3   289  ALA289      0.1694
     94  C         76.1390   10.8820   21.1580 C.2   289  ALA289      0.2591
     95  O         75.0780   10.8100   21.8010 O.2   289  ALA289     -0.2718
     96  CB        76.9030    8.6090   20.2930 C.3   289  ALA289      0.0304
     97  N         77.1230   11.7180   21.4860 N.am  290  LEU290     -0.1980
     98  CA        76.9890   12.5910   22.6510 C.3   290  LEU290      0.1596
     99  C         76.5460   14.0150   22.3440 C.2   290  LEU290      0.2287
    100  O         76.3890   14.8240   23.2650 O.2   290  LEU290     -0.2864
    101  CB        78.3020   12.6700   23.4310 C.3   290  LEU290      0.0297
    102  CG        78.7790   11.4080   24.1370 C.3   290  LEU290      0.0022
    103  CD1       79.8370   11.8590   25.1370 C.3   290  LEU290      0.0001
    104  CD2       77.6450   10.6820   24.8530 C.3   290  LEU290      0.0001
    105  N         72.8380   -1.1430   21.3860 N.3   312  LYS312     -0.1231
    106  CA        73.2910   -0.2540   22.4670 C.3   312  LYS312      0.1693
    107  C         74.7790   -0.4860   22.7440 C.2   312  LYS312      0.2593
    108  O         75.2060   -1.6310   22.8690 O.2   312  LYS312     -0.2718
    109  CB        72.5160   -0.4960   23.7690 C.3   312  LYS312      0.0285
    110  CG        72.8390    0.5210   24.8660 C.3   312  LYS312      0.0035
    111  CD        72.3370    1.9380   24.4930 C.3   312  LYS312      0.0206
    112  CE        72.7750    2.9950   25.5150 C.3   312  LYS312      0.1093
    113  NZ        74.1920    3.3830   25.2820 N.3   312  LYS312     -0.1314
    114  N         75.5380    0.6050   22.8190 N.am  313  THR313     -0.1939
    115  CA        76.9740    0.5920   23.1470 C.3   313  THR313      0.2028
    116  C         77.0890    0.8250   24.6720 C.2   313  THR313      0.2643
    117  O         76.1470    1.2950   25.3110 O.2   313  THR313     -0.2714
    118  CB        77.7460    1.7600   22.4720 C.3   313  THR313      0.1808
    119  OG1       77.0630    2.9880   22.7540 O.3   313  THR313     -0.2208
    120  CG2       77.8360    1.5680   20.9640 C.3   313  THR313      0.0379
    121  N         78.2470    0.5090   25.2420 N.am  314  GLY314     -0.1939
    122  CA        78.4400    0.6820   26.6810 C.3   314  GLY314      0.2014
    123  C         79.9050    0.4620   27.0390 C.2   314  GLY314      0.2639
    124  O         80.6020   -0.3140   26.3720 O.2   314  GLY314     -0.2714
    125  N         80.3880    1.1500   28.0660 N.am  315  ALA315     -0.1963
    126  CA        81.7820    0.9970   28.4830 C.3   315  ALA315      0.1728
    127  C         81.9450    1.5260   29.9040 C.2   315  ALA315      0.2617
    128  O         81.1180    2.2970   30.3700 O.2   315  ALA315     -0.2715
    129  CB        82.7050    1.8110   27.5350 C.3   315  ALA315      0.0334
    130  N         82.9890    1.0720   30.5880 N.am  316  THR316     -0.1937
    131  CA        83.3390    1.5950   31.9070 C.3   316  THR316      0.2028
    132  C         84.8260    1.8990   31.7180 C.2   316  THR316      0.2642
    133  O         85.3380    1.7770   30.6020 O.2   316  THR316     -0.2714
    134  CB        83.1100    0.5800   33.0760 C.3   316  THR316      0.1808
    135  OG1       83.8060   -0.6510   32.8280 O.3   316  THR316     -0.2208
    136  CG2       81.6160    0.3270   33.2550 C.3   316  THR316      0.0379
    137  N         85.5190    2.3180   32.7690 N.am  317  GLY317     -0.1954
    138  CA        86.9310    2.6040   32.6090 C.3   317  GLY317      0.1869
    139  C         87.7360    1.4340   32.0440 C.2   317  GLY317      0.2309
    140  O         88.6610    1.6410   31.2710 O.2   317  GLY317     -0.2863
    141  N         88.3470   -0.8890   27.3200 N.3   340  ASN340     -0.1240
    142  CA        87.4830    0.0750   26.6460 C.3   340  ASN340      0.1653
    143  C         88.1690    0.5020   25.3480 C.2   340  ASN340      0.2266
    144  O         89.2470    1.1030   25.3730 O.2   340  ASN340     -0.2867
    145  CB        87.2410    1.2940   27.5480 C.3   340  ASN340      0.1155
    146  CG        86.2840    2.3260   26.9200 C.2   340  ASN340      0.2627
    147  OD1       85.8480    2.1820   25.7770 O.2   340  ASN340     -0.2716
    148  ND2       85.9600    3.3680   27.6770 N.am  340  ASN340     -0.0877
    149  N         84.0130    2.7630   20.0710 N.3   343  ASN343     -0.1240
    150  CA        82.6990    2.2630   19.6880 C.3   343  ASN343      0.1653
    151  C         82.5940    1.9020   18.2050 C.2   343  ASN343      0.2266
    152  O         82.0460    0.8470   17.8530 O.2   343  ASN343     -0.2867
    153  CB        81.6150    3.2980   20.0230 C.3   343  ASN343      0.1155
    154  CG        81.2200    3.2900   21.4820 C.2   343  ASN343      0.2627
    155  OD1       81.3110    2.2630   22.1660 O.2   343  ASN343     -0.2716
    156  ND2       80.7460    4.4350   21.9660 N.am  343  ASN343     -0.0877
@<TRIPOS>BOND
     1   152   151    2
     2   151   150    1
     3    92    93    1
     4    84    85    1
     5   150   153    1
     6   150   149    1
     7    93    96    1
     8    93    94    1
     9   153   154    1
    10    86    85    1
    11    86    87    2
    12    85    88    1
    13   120   118    1
    14    94    97   am
    15    94    95    2
    16   105   106    1
    17   154   156   am
    18   154   155    2
    19    97    98    1
    20    88    89    1
    21    99    98    1
    22    99   100    2
    23    91    89   am
    24   106   107    1
    25   106   109    1
    26   118   119    1
    27   118   115    1
    28    98   101    1
    29   107   114   am
    30   107   108    2
    31    89    90    2
    32   114   115    1
    33   115   116    1
    34   101   102    1
    35   109   110    1
    36   102   104    1
    37   102   103    1
    38   111   110    1
    39   111   112    1
    40   116   121   am
    41   116   117    2
    42    32    33    1
    43    32    29    1
    44    28    29    1
    45   121   122    1
    46   113   112    1
    47   143   144    2
    48   143   142    1
    49    35    33   ar
    50    35    37   ar
    51    33    34   ar
    52    29    30    1
    53   147   146    2
    54    37    38   ar
    55   124   123    2
    56    34    36   ar
    57   142   141    1
    58   142   145    1
    59   122   123    1
    60    38    36   ar
    61    38    39    1
    62   146   145    1
    63   146   148   am
    64   123   125   am
    65    30    31    2
    66   129   126    1
    67   125   126    1
    68   126   127    1
    69    18    16    1
    70     9    10    1
    71     9     6    1
    72     8     7    2
    73    17    16    1
    74     7     6    1
    75    16    15    1
    76     6     5    1
    77    15    12    1
    78     5     3   am
    79   127   128    2
    80   127   130   am
    81    12    11    1
    82    12    13    1
    83   130   131    1
    84   133   132    2
    85     3     2    1
    86     3     4    2
    87     2     1    1
    88   140   139    2
    89    40    41    1
    90    49    50    1
    91    49    48    1
    92    49    52    1
    93    46    45    2
    94    53    52    1
    95    53    54    1
    96    50    51    2
    97   132   131    1
    98   132   137   am
    99    58    56    1
   100    13    14    2
   101    13    19   am
   102    55    56    2
   103    55    54    1
   104   131   134    1
   105   139   138    1
   106    27    25   am
   107    56    57    1
   108    45    47   am
   109    45    44    1
   110    41    44    1
   111    41    42    1
   112   138   137    1
   113    19    20    1
   114   135   134    1
   115   134   136    1
   116    24    25    1
   117    24    23    1
   118    25    26    2
   119    76    73    1
   120    76    77    1
   121    42    43    2
   122    73    72    1
   123    73    74    1
   124    20    23    1
   125    20    21    1
   126    75    74    2
   127    77    79   ar
   128    77    78   ar
   129    79    81   ar
   130    21    22    2
   131    78    80   ar
   132    81    82   ar
   133    80    82   ar
   134    82    83    1
   135    65    63    1
   136    63    60    1
   137    63    64    1
   138    59    60    1
   139    60    61    1
   140    61    66   am
   141    61    62    2
   142    66    67    1
   143    71    70    1
   144    69    68    2
   145    67    68    1
   146    67    70    1
