@<TRIPOS>MOLECULE
tmp/1iemB00.pdb
 136 125 0 0 0
SMALL
GASTEIGER

@<TRIPOS>ATOM
      1  N         77.0980    1.6430   29.4340 N.3    61  SER61      -0.1217
      2  CA        75.7670    2.0980   29.0530 C.3    61  SER61       0.1889
      3  C         74.8240    1.0340   28.4870 C.2    61  SER61       0.2288
      4  O         73.6250    1.2820   28.3670 O.2    61  SER61      -0.2866
      5  CB        75.8670    3.2650   28.0960 C.3    61  SER61       0.2089
      6  OG        76.0520    4.4250   28.8860 O.3    61  SER61      -0.2183
      7  N         71.6670    0.6290   30.2270 N.3    64  LYS64      -0.1245
      8  CA        70.4830    1.4320   29.9420 C.3    64  LYS64       0.1561
      9  C         69.3680    0.6020   29.2870 C.2    64  LYS64       0.2260
     10  O         68.1960    0.9350   29.4400 O.2    64  LYS64      -0.2867
     11  CB        70.8550    2.6200   29.0550 C.3    64  LYS64       0.0271
     12  CG        71.7000    3.6920   29.7560 C.3    64  LYS64       0.0035
     13  CD        72.1260    4.7730   28.7940 C.3    64  LYS64       0.0206
     14  CE        72.8680    5.9290   29.4890 C.3    64  LYS64       0.1093
     15  NZ        74.1970    5.5860   30.1010 N.3    64  LYS64      -0.1314
     16  N         75.3990   15.1300   30.6640 N.3   116  LEU116     -0.1231
     17  CA        75.8610   13.7900   30.2960 C.3   116  LEU116      0.1693
     18  C         76.2240   13.0020   31.5480 C.2   116  LEU116      0.2591
     19  O         76.0120   11.7900   31.6330 O.2   116  LEU116     -0.2718
     20  CB        77.0840   13.8830   29.3870 C.3   116  LEU116      0.0284
     21  CG        77.7800   12.5410   29.1620 C.3   116  LEU116      0.0019
     22  CD1       76.8220   11.6220   28.4140 C.3   116  LEU116      0.0001
     23  CD2       79.0690   12.7060   28.3850 C.3   116  LEU116      0.0001
     24  N         76.7720   13.7080   32.5270 N.am  117  GLN117     -0.1979
     25  CA        77.1590   13.0740   33.7710 C.3   117  GLN117      0.1601
     26  C         76.7470   13.8550   34.9970 C.2   117  GLN117      0.2287
     27  O         76.6470   15.0790   34.9710 O.2   117  GLN117     -0.2864
     28  CB        78.6700   12.8610   33.8070 C.3   117  GLN117      0.0394
     29  CG        79.1610   11.9970   32.6780 C.3   117  GLN117      0.0908
     30  CD        80.3310   11.1550   33.0860 C.2   117  GLN117      0.2608
     31  OE1       81.4480   11.6570   33.2620 O.2   117  GLN117     -0.2717
     32  NE2       80.0850    9.8580   33.2650 N.am  117  GLN117     -0.0878
     33  N         72.0990   12.8210   24.9220 N.3   147  TYR147     -0.1241
     34  CA        72.4270   11.5870   25.6200 C.3   147  TYR147      0.1605
     35  C         72.9570   11.9550   27.0100 C.2   147  TYR147      0.2264
     36  O         73.8860   12.7350   27.1260 O.2   147  TYR147     -0.2867
     37  CB        73.4670   10.8220   24.8080 C.3   147  TYR147      0.0534
     38  CG        73.8570    9.4830   25.3790 C.ar  147  TYR147     -0.0201
     39  CD1       75.0860    9.3060   26.0070 C.ar  147  TYR147     -0.0009
     40  CD2       73.0100    8.3780   25.2630 C.ar  147  TYR147     -0.0009
     41  CE1       75.4700    8.0620   26.5000 C.ar  147  TYR147      0.0417
     42  CE2       73.3840    7.1300   25.7550 C.ar  147  TYR147      0.0417
     43  CZ        74.6180    6.9800   26.3690 C.ar  147  TYR147      0.1957
     44  OH        75.0110    5.7520   26.8230 O.3   147  TYR147     -0.2866
     45  N         73.4810   10.4120   31.3210 N.3   149  ASN149     -0.1240
     46  CA        73.2880    9.4830   32.4450 C.3   149  ASN149      0.1653
     47  C         72.3560   10.1000   33.4720 C.2   149  ASN149      0.2266
     48  O         71.6230    9.3980   34.1610 O.2   149  ASN149     -0.2867
     49  CB        74.6020    9.1760   33.1810 C.3   149  ASN149      0.1155
     50  CG        75.5720    8.3470   32.3620 C.2   149  ASN149      0.2627
     51  OD1       75.1780    7.5970   31.4580 O.2   149  ASN149     -0.2716
     52  ND2       76.8500    8.4660   32.6840 N.am  149  ASN149     -0.0877
     53  N         92.7580    0.3340   31.1350 N.3   201  ARG201     -0.1245
     54  CA        92.8570    1.7080   30.6760 C.3   201  ARG201      0.1563
     55  C         94.3060    2.1480   30.8030 C.2   201  ARG201      0.2260
     56  O         94.7970    2.3870   31.9030 O.2   201  ARG201     -0.2867
     57  CB        91.9560    2.6190   31.5150 C.3   201  ARG201      0.0307
     58  CG        91.9630    4.0420   31.0350 C.3   201  ARG201      0.0489
     59  CD        91.1660    4.9800   31.9080 C.3   201  ARG201      0.2205
     60  NE        91.3540    6.3460   31.4260 N.pl3 201  ARG201     -0.0865
     61  CZ        90.7910    7.4340   31.9490 C.cat 201  ARG201      0.5346
     62  NH1       89.9810    7.3350   32.9980 N.pl3 201  ARG201      0.1354
     63  NH2       91.0360    8.6270   31.4130 N.pl3 201  ARG201      0.1354
     64  N         84.8920   -0.1610   37.5180 N.3   208  VAL208     -0.1231
     65  CA        84.1030    1.0630   37.6380 C.3   208  VAL208      0.1692
     66  C         84.0310    1.5100   39.0980 C.2   208  VAL208      0.2592
     67  O         84.0730    0.6810   40.0060 O.2   208  VAL208     -0.2718
     68  CB        82.6690    0.8420   37.1360 C.3   208  VAL208      0.0266
     69  CG1       81.9650   -0.1450   38.0430 C.3   208  VAL208      0.0020
     70  CG2       81.9080    2.1780   37.0830 C.3   208  VAL208      0.0020
     71  N         83.9140    2.8160   39.3220 N.am  209  SER209     -0.1952
     72  CA        83.8260    3.3600   40.6770 C.3   209  SER209      0.1924
     73  C         82.4140    3.8270   40.9710 C.2   209  SER209      0.2314
     74  O         81.6980    4.2700   40.0690 O.2   209  SER209     -0.2863
     75  CB        84.7680    4.5580   40.8490 C.3   209  SER209      0.2116
     76  OG        86.1250    4.1680   40.7740 O.3   209  SER209     -0.2180
     77  N         74.8120    2.8300   34.1300 N.3   218  TYR218     -0.1241
     78  CA        75.9260    2.1180   33.5030 C.3   218  TYR218      0.1605
     79  C         76.5470    1.0580   34.4100 C.2   218  TYR218      0.2264
     80  O         77.6860    0.6470   34.1810 O.2   218  TYR218     -0.2867
     81  CB        77.0110    3.1230   33.1020 C.3   218  TYR218      0.0534
     82  CG        77.4990    4.0050   34.2490 C.ar  218  TYR218     -0.0201
     83  CD1       78.3260    3.4960   35.2500 C.ar  218  TYR218     -0.0009
     84  CD2       77.1000    5.3420   34.3470 C.ar  218  TYR218     -0.0009
     85  CE1       78.7400    4.2940   36.3250 C.ar  218  TYR218      0.0417
     86  CE2       77.5070    6.1510   35.4150 C.ar  218  TYR218      0.0417
     87  CZ        78.3270    5.6140   36.4000 C.ar  218  TYR218      0.1957
     88  OH        78.7280    6.3980   37.4580 O.3   218  TYR218     -0.2866
     89  N         81.3980    9.2800   19.3430 N.3   286  ASN286     -0.1240
     90  CA        80.9370   10.1570   20.4140 C.3   286  ASN286      0.1653
     91  C         80.7090   11.6100   20.0110 C.2   286  ASN286      0.2266
     92  O         79.7450   12.2230   20.4560 O.2   286  ASN286     -0.2867
     93  CB        81.8920   10.0740   21.6170 C.3   286  ASN286      0.1155
     94  CG        81.6130    8.8580   22.5090 C.2   286  ASN286      0.2627
     95  OD1       80.7820    8.0120   22.1930 O.2   286  ASN286     -0.2716
     96  ND2       82.3060    8.7820   23.6280 N.am  286  ASN286     -0.0877
     97  N         77.1970   11.9530   21.3380 N.3   290  LEU290     -0.1245
     98  CA        77.0840   12.7820   22.5370 C.3   290  LEU290      0.1561
     99  C         76.6240   14.2300   22.2600 C.2   290  LEU290      0.2260
    100  O         76.3740   15.0010   23.1890 O.2   290  LEU290     -0.2867
    101  CB        78.4270   12.8120   23.2510 C.3   290  LEU290      0.0270
    102  CG        79.0090   11.4990   23.7750 C.3   290  LEU290      0.0019
    103  CD1       80.2330   11.8540   24.6270 C.3   290  LEU290      0.0001
    104  CD2       77.9900   10.7400   24.6080 C.3   290  LEU290      0.0001
    105  N         80.1240    1.8130   27.6520 N.3   315  ALA315     -0.1231
    106  CA        81.5220    1.8730   28.0590 C.3   315  ALA315      0.1694
    107  C         81.7470    2.3680   29.4950 C.2   315  ALA315      0.2593
    108  O         80.8950    3.0420   30.0730 O.2   315  ALA315     -0.2718
    109  CB        82.2770    2.7640   27.0880 C.3   315  ALA315      0.0304
    110  N         82.8800    1.9780   30.0780 N.am  316  THR316     -0.1939
    111  CA        83.2760    2.4590   31.4040 C.3   316  THR316      0.2028
    112  C         84.7490    2.7820   31.2140 C.2   316  THR316      0.2642
    113  O         85.2540    2.7450   30.0900 O.2   316  THR316     -0.2714
    114  CB        83.1750    1.4010   32.5200 C.3   316  THR316      0.1808
    115  OG1       83.8520    0.2130   32.1000 O.3   316  THR316     -0.2208
    116  CG2       81.7120    1.1150   32.8890 C.3   316  THR316      0.0379
    117  N         85.4440    3.0970   32.2940 N.am  317  GLY317     -0.1954
    118  CA        86.8520    3.4030   32.1670 C.3   317  GLY317      0.1869
    119  C         87.6910    2.3190   31.4950 C.2   317  GLY317      0.2309
    120  O         88.5690    2.6320   30.6760 O.2   317  GLY317     -0.2863
    121  N         88.1300   -0.0470   26.5800 N.3   340  ASN340     -0.1240
    122  CA        87.2130    0.9080   25.9790 C.3   340  ASN340      0.1653
    123  C         87.8570    1.3720   24.6820 C.2   340  ASN340      0.2266
    124  O         88.7480    2.2170   24.7090 O.2   340  ASN340     -0.2867
    125  CB        87.0130    2.1060   26.9160 C.3   340  ASN340      0.1155
    126  CG        86.1450    3.2010   26.3000 C.2   340  ASN340      0.2627
    127  OD1       85.7470    3.1140   25.1400 O.2   340  ASN340     -0.2716
    128  ND2       85.8550    4.2390   27.0790 N.am  340  ASN340     -0.0877
    129  N         83.9980    3.4870   19.4980 N.3   343  ASN343     -0.1240
    130  CA        82.6890    2.9590   19.1340 C.3   343  ASN343      0.1653
    131  C         82.6000    2.5560   17.6560 C.2   343  ASN343      0.2266
    132  O         82.1200    1.4680   17.3380 O.2   343  ASN343     -0.2867
    133  CB        81.5600    3.9760   19.4110 C.3   343  ASN343      0.1155
    134  CG        81.2060    4.0890   20.8860 C.2   343  ASN343      0.2627
    135  OD1       81.1930    3.0990   21.6220 O.2   343  ASN343     -0.2716
    136  ND2       80.8880    5.3020   21.3180 N.am  343  ASN343     -0.0877
@<TRIPOS>BOND
     1   132   131    2
     2   131   130    1
     3   130   133    1
     4   130   129    1
     5    89    90    1
     6   133   134    1
     7    91    90    1
     8    91    92    2
     9    90    93    1
    10   134   136   am
    11   134   135    2
    12    97    98    1
    13    93    94    1
    14    95    94    2
    15    99    98    1
    16    99   100    2
    17    94    96   am
    18    98   101    1
    19   101   102    1
    20   102   104    1
    21   102   103    1
    22   123   124    2
    23   123   122    1
    24    37    38    1
    25    37    34    1
    26    33    34    1
    27   127   126    2
    28    40    38   ar
    29    40    42   ar
    30    38    39   ar
    31    34    35    1
    32    42    43   ar
    33   122   121    1
    34   122   125    1
    35    39    41   ar
    36   126   125    1
    37   126   128   am
    38    43    41   ar
    39    43    44    1
    40    35    36    2
    41   109   106    1
    42   105   106    1
    43   106   107    1
    44     5     6    1
    45     5     2    1
    46     4     3    2
    47    23    21    1
    48    22    21    1
    49     3     2    1
    50    13    14    1
    51    13    12    1
    52     2     1    1
    53    11    12    1
    54    11     8    1
    55    21    20    1
    56     9    10    2
    57     9     8    1
    58    20    17    1
    59    14    15    1
    60   107   108    2
    61   107   110   am
    62     8     7    1
    63   110   111    1
    64   113   112    2
    65    17    16    1
    66    17    18    1
    67   120   119    2
    68    54    55    1
    69    54    53    1
    70    54    57    1
    71    55    56    2
    72    58    57    1
    73    58    59    1
    74   112   111    1
    75   112   117   am
    76    45    46    1
    77   111   114    1
    78    63    61    1
    79    60    59    1
    80    60    61    2
    81    51    50    2
    82   119   118    1
    83    18    19    2
    84    18    24   am
    85    61    62    1
    86   115   114    1
    87   118   117    1
    88    50    52   am
    89    50    49    1
    90    46    49    1
    91    46    47    1
    92   114   116    1
    93    24    25    1
    94    29    30    1
    95    29    28    1
    96    30    31    2
    97    30    32   am
    98    81    78    1
    99    81    82    1
   100    47    48    2
   101    78    77    1
   102    78    79    1
   103    25    28    1
   104    25    26    1
   105    80    79    2
   106    82    84   ar
   107    82    83   ar
   108    84    86   ar
   109    27    26    2
   110    83    85   ar
   111    86    87   ar
   112    85    87   ar
   113    87    88    1
   114    70    68    1
   115    68    65    1
   116    68    69    1
   117    64    65    1
   118    65    66    1
   119    66    71   am
   120    66    67    2
   121    71    72    1
   122    74    73    2
   123    72    75    1
   124    72    73    1
   125    76    75    1
