@<TRIPOS>MOLECULE
tmp/1ievA03.pdb
 130 126 0 0 0
SMALL
GASTEIGER

@<TRIPOS>ATOM
      1  N         25.0870   25.7160   23.9640 N.3    54  LEU54      -0.1245
      2  CA        24.1580   25.8960   25.0560 C.3    54  LEU54       0.1561
      3  C         23.8050   27.3670   25.2570 C.2    54  LEU54       0.2260
      4  O         24.5190   28.2820   24.8260 O.2    54  LEU54      -0.2867
      5  CB        24.7380   25.3630   26.3640 C.3    54  LEU54       0.0270
      6  CG        25.4790   26.4400   27.1840 C.3    54  LEU54       0.0019
      7  CD1       25.1900   26.3350   28.6340 C.3    54  LEU54       0.0001
      8  CD2       26.9580   26.3770   26.9250 C.3    54  LEU54       0.0001
      9  N         19.1040   25.0690   30.3650 N.3    95  ASP95      -0.1239
     10  CA        18.5210   24.8420   31.6840 C.3    95  ASP95       0.1674
     11  C         17.0080   25.0490   31.6640 C.2    95  ASP95       0.2266
     12  O         16.5390   26.1710   31.9590 O.2    95  ASP95      -0.2867
     13  CB        19.0880   25.8450   32.6560 C.3    95  ASP95       0.1410
     14  CG        20.4940   25.5710   32.9520 C.2    95  ASP95       0.3668
     15  OD1       21.3560   26.2850   32.3960 O.co2  95  ASP95      -0.2456
     16  OD2       20.7750   24.5810   33.6750 O.co2  95  ASP95      -0.2456
     17  N         19.0510   20.4290   30.7750 N.3   144  PHE144     -0.1241
     18  CA        19.9450   20.1490   31.8810 C.3   144  PHE144      0.1605
     19  C         19.1010   19.9260   33.1160 C.2   144  PHE144      0.2264
     20  O         19.2130   20.6200   34.1060 O.2   144  PHE144     -0.2867
     21  CB        20.8870   21.3400   32.0670 C.3   144  PHE144      0.0534
     22  CG        21.7800   21.5940   30.8800 C.ar  144  PHE144     -0.0203
     23  CD1       22.0600   22.8690   30.4720 C.ar  144  PHE144     -0.0042
     24  CD2       22.3970   20.5430   30.2180 C.ar  144  PHE144     -0.0042
     25  CE1       22.9630   23.0970   29.4120 C.ar  144  PHE144     -0.0003
     26  CE2       23.2870   20.7770   29.1780 C.ar  144  PHE144     -0.0003
     27  CZ        23.5720   22.0480   28.7740 C.ar  144  PHE144     -0.0000
     28  N         21.2150   26.6270   46.2980 N.3   158  ARG158     -0.1245
     29  CA        20.4350   25.7440   45.3960 C.3   158  ARG158      0.1563
     30  C         19.5000   24.7120   46.0870 C.2   158  ARG158      0.2260
     31  O         19.1070   23.7550   45.4460 O.2   158  ARG158     -0.2867
     32  CB        21.3980   24.9860   44.4570 C.3   158  ARG158      0.0307
     33  CG        22.6110   25.8230   43.9780 C.3   158  ARG158      0.0489
     34  CD        23.2690   25.1310   42.8250 C.3   158  ARG158      0.2205
     35  NE        22.3660   25.0480   41.6690 N.pl3 158  ARG158     -0.0865
     36  CZ        22.7490   24.7030   40.4350 C.cat 158  ARG158      0.5346
     37  NH1       24.0310   24.3870   40.1910 N.pl3 158  ARG158      0.1354
     38  NH2       21.8650   24.7420   39.4280 N.pl3 158  ARG158      0.1354
     39  N         21.4880   15.6610   37.1550 N.3   206  LYS206     -0.1231
     40  CA        22.5590   16.5460   37.5950 C.3   206  LYS206      0.1693
     41  C         23.1000   16.6510   39.0160 C.2   206  LYS206      0.2592
     42  O         22.3780   16.7280   40.0400 O.2   206  LYS206     -0.2718
     43  CB        22.6070   17.8570   36.8610 C.3   206  LYS206      0.0285
     44  CG        21.6370   18.8940   37.3100 C.3   206  LYS206      0.0035
     45  CD        21.6810   20.0720   36.3830 C.3   206  LYS206      0.0206
     46  CE        20.6590   21.0850   36.8380 C.3   206  LYS206      0.1093
     47  NZ        20.5130   22.2570   35.9410 N.3   206  LYS206     -0.1314
     48  N         24.3660   17.1140   38.8850 N.am  207  HIS207     -0.1976
     49  CA        25.4560   17.3740   39.7570 C.3   207  HIS207      0.1656
     50  C         25.9930   16.1670   40.3840 C.2   207  HIS207      0.2291
     51  O         26.1250   16.0930   41.5990 O.2   207  HIS207     -0.2864
     52  CB        25.2200   18.5380   40.6410 C.3   207  HIS207      0.0771
     53  CG        24.6190   19.7040   39.9180 C.ar  207  HIS207      0.0820
     54  ND1       23.5180   20.3800   40.3830 N.ar  207  HIS207     -0.2267
     55  CD2       24.9630   20.2760   38.7450 C.ar  207  HIS207      0.1154
     56  CE1       23.1980   21.3380   39.5190 C.ar  207  HIS207      0.1986
     57  NE2       24.0520   21.2900   38.5230 N.ar  207  HIS207     -0.2212
     58  N         25.6490   15.2370   34.3550 N.3   250  MET250     -0.1245
     59  CA        26.4970   16.4150   34.4890 C.3   250  MET250      0.1570
     60  C         27.2670   16.2720   35.7870 C.2   250  MET250      0.2261
     61  O         26.7200   15.8280   36.7780 O.2   250  MET250     -0.2867
     62  CB        25.6520   17.7130   34.4990 C.3   250  MET250      0.0387
     63  CG        26.4660   18.9610   34.7580 C.3   250  MET250      0.0595
     64  SD        25.5640   20.4440   34.5650 S.3   250  MET250     -0.1393
     65  CE        25.1040   20.1880   32.9350 C.3   250  MET250      0.0692
     66  N         30.4400   20.7220   40.6480 N.3   253  TYR253     -0.1241
     67  CA        31.6090   21.5530   40.9650 C.3   253  TYR253      0.1605
     68  C         32.2020   21.1520   42.3200 C.2   253  TYR253      0.2264
     69  O         33.3010   21.5550   42.6690 O.2   253  TYR253     -0.2867
     70  CB        31.1890   23.0070   41.1680 C.3   253  TYR253      0.0534
     71  CG        30.7390   23.7800   39.9590 C.ar  253  TYR253     -0.0201
     72  CD1       29.4980   24.4240   39.9520 C.ar  253  TYR253     -0.0009
     73  CD2       31.5700   23.9370   38.8500 C.ar  253  TYR253     -0.0009
     74  CE1       29.0990   25.1900   38.8850 C.ar  253  TYR253      0.0417
     75  CE2       31.1770   24.7090   37.7790 C.ar  253  TYR253      0.0417
     76  CZ        29.9370   25.3230   37.8100 C.ar  253  TYR253      0.1957
     77  OH        29.5030   26.0380   36.7270 O.3   253  TYR253     -0.2866
     78  N         30.3690   20.9010   34.0870 N.3   285  ASP285     -0.1225
     79  CA        29.4650   22.0050   34.3500 C.3   285  ASP285      0.1805
     80  C         30.2030   23.2170   33.7760 C.2   285  ASP285      0.2597
     81  O         31.3830   23.1200   33.4030 O.2   285  ASP285     -0.2718
     82  CB        29.2430   22.1630   35.8530 C.3   285  ASP285      0.1424
     83  CG        27.8970   22.7680   36.1730 C.2   285  ASP285      0.3668
     84  OD1       27.3920   23.6930   35.2330 O.co2 285  ASP285     -0.2456
     85  OD2       27.2670   22.3800   37.1830 O.co2 285  ASP285     -0.2456
     86  N         29.5430   24.3660   33.7660 N.am  286  TRP286     -0.1976
     87  CA        30.1160   25.6040   33.2330 C.3   286  TRP286      0.1640
     88  C         31.4590   25.9280   33.8700 C.2   286  TRP286      0.2290
     89  O         31.4990   26.3850   35.0000 O.2   286  TRP286     -0.2864
     90  CB        29.1080   26.7160   33.4950 C.3   286  TRP286      0.0576
     91  CG        29.4310   28.0440   32.9060 C.ar  286  TRP286      0.0006
     92  CD1       30.4080   28.8930   33.3280 C.ar  286  TRP286      0.0946
     93  CD2       28.6790   28.7270   31.9260 C.ar  286  TRP286      0.0152
     94  NE1       30.2940   30.1130   32.6800 N.ar  286  TRP286     -0.2442
     95  CE2       29.2310   30.0410   31.7920 C.ar  286  TRP286      0.0810
     96  CE3       27.5880   28.4250   31.1200 C.ar  286  TRP286      0.0012
     97  CZ2       28.7450   31.0040   30.9040 C.ar  286  TRP286      0.0191
     98  CZ3       27.0960   29.3960   30.2150 C.ar  286  TRP286      0.0001
     99  CH2       27.6890   30.6660   30.1260 C.ar  286  TRP286      0.0015
    100  N         31.6720   21.5620   28.7510 N.3   316  MET316     -0.1245
    101  CA        30.9560   22.8240   28.6820 C.3   316  MET316      0.1570
    102  C         32.0330   23.9040   28.9350 C.2   316  MET316      0.2261
    103  O         32.2300   24.3630   30.0640 O.2   316  MET316     -0.2867
    104  CB        29.8930   22.8470   29.7430 C.3   316  MET316      0.0387
    105  CG        29.0330   24.0420   29.6750 C.3   316  MET316      0.0595
    106  SD        27.8340   23.8430   30.9050 S.3   316  MET316     -0.1393
    107  CE        27.5340   25.3670   31.2470 C.3   316  MET316      0.0692
    108  N         16.2890   31.1220   38.1540 N.3   430  TRP430     -0.1241
    109  CA        16.1400   30.3340   36.9300 C.3   430  TRP430      0.1605
    110  C         14.8160   30.7260   36.2700 C.2   430  TRP430      0.2264
    111  O         13.9060   29.9230   36.1150 O.2   430  TRP430     -0.2867
    112  CB        16.2380   28.8240   37.2250 C.3   430  TRP430      0.0550
    113  CG        17.6820   28.3200   37.5420 C.ar  430  TRP430      0.0003
    114  CD1       18.1110   27.6880   38.6960 C.ar  430  TRP430      0.0946
    115  CD2       18.8360   28.3650   36.6820 C.ar  430  TRP430      0.0152
    116  NE1       19.4160   27.3480   38.5990 N.ar  430  TRP430     -0.2442
    117  CE2       19.8970   27.7510   37.3880 C.ar  430  TRP430      0.0810
    118  CE3       19.0740   28.8860   35.3950 C.ar  430  TRP430      0.0012
    119  CZ2       21.1920   27.6250   36.8380 C.ar  430  TRP430      0.0191
    120  CZ3       20.3740   28.7540   34.8500 C.ar  430  TRP430      0.0001
    121  CH2       21.4060   28.1380   35.5760 C.ar  430  TRP430      0.0015
    122  N         22.2680   29.7090   42.7110 N.3   491  GLU491     -0.1245
    123  CA        23.6030   29.3190   43.0610 C.3   491  GLU491      0.1567
    124  C         24.2070   30.0750   44.2470 C.2   491  GLU491      0.2260
    125  O         23.5040   30.4280   45.1710 O.2   491  GLU491     -0.2867
    126  CB        24.4620   29.4130   41.8000 C.3   491  GLU491      0.0388
    127  CG        23.9310   28.4650   40.7130 C.3   491  GLU491      0.1160
    128  CD        24.7750   28.4090   39.4730 C.2   491  GLU491      0.3649
    129  OE1       25.9800   28.0790   39.6490 O.co2 491  GLU491     -0.2457
    130  OE2       24.2210   28.6710   38.3570 O.co2 491  GLU491     -0.2457
@<TRIPOS>BOND
     1     1     2    1
     2     4     3    2
     3     2     3    1
     4     2     5    1
     5     5     6    1
     6     8     6    1
     7     6     7    1
     8   101   100    1
     9   101   102    1
    10   101   104    1
    11    27    26   ar
    12    27    25   ar
    13   102   103    2
    14    26    24   ar
    15    25    23   ar
    16   105   104    1
    17   105   106    1
    18    99    98   ar
    19    99    97   ar
    20    98    96   ar
    21    24    22   ar
    22     9    10    1
    23    23    22   ar
    24    17    18    1
    25    22    21    1
    26    97    95   ar
    27   106   107    1
    28    96    93   ar
    29    11    10    1
    30    11    12    2
    31    10    13    1
    32    95    93   ar
    33    95    94   ar
    34    18    21    1
    35    18    19    1
    36    93    91   ar
    37    15    14   ar
    38    13    14    1
    39    94    92   ar
    40    91    92   ar
    41    91    90    1
    42    65    64    1
    43    14    16   ar
    44    19    20    2
    45    87    90    1
    46    87    86    1
    47    87    88    1
    48    81    80    2
    49    86    80   am
    50    80    79    1
    51    88    89    2
    52    78    79    1
    53    79    82    1
    54    58    59    1
    55    59    62    1
    56    59    60    1
    57    62    63    1
    58    64    63    1
    59   120   118   ar
    60   120   121   ar
    61    84    83   ar
    62   118   115   ar
    63   121   119   ar
    64    60    61    2
    65    82    83    1
    66    47    46    1
    67   111   110    2
    68    83    85   ar
    69   110   109    1
    70    45    46    1
    71    45    44    1
    72   115   117   ar
    73   115   113   ar
    74    77    76    1
    75   119   117   ar
    76    43    44    1
    77    43    40    1
    78   109   112    1
    79   109   108    1
    80    39    40    1
    81   112   113    1
    82   117   116   ar
    83   113   114   ar
    84    40    41    1
    85    75    76   ar
    86    75    73   ar
    87    76    74   ar
    88   130   128   ar
    89    57    55   ar
    90    57    56   ar
    91   116   114   ar
    92    55    53   ar
    93    73    71   ar
    94    74    72   ar
    95    48    41   am
    96    48    49    1
    97    41    42    2
    98    38    36    1
    99   128   129   ar
   100   128   127    1
   101    56    54   ar
   102    49    50    1
   103    49    52    1
   104    53    54   ar
   105    53    52    1
   106    72    71   ar
   107    71    70    1
   108    37    36    1
   109    50    51    2
   110    36    35    2
   111    66    67    1
   112   127   126    1
   113    67    70    1
   114    67    68    1
   115    35    34    1
   116   126   123    1
   117    68    69    2
   118   122   123    1
   119    34    33    1
   120   123   124    1
   121    33    32    1
   122   124   125    2
   123    32    29    1
   124    29    30    1
   125    29    28    1
   126    31    30    2
