@<TRIPOS>MOLECULE
tmp/1ievA01.pdb
 120 119 0 0 0
SMALL
GASTEIGER

@<TRIPOS>ATOM
      1  N          9.2600   37.4860   41.7520 N.3   425  TYR425     -0.1241
      2  CA         9.5010   36.9590   43.0970 C.3   425  TYR425      0.1605
      3  C          8.8730   35.5410   43.2060 C.2   425  TYR425      0.2264
      4  O          9.4860   34.5650   43.6780 O.2   425  TYR425     -0.2867
      5  CB         8.8830   37.9060   44.1400 C.3   425  TYR425      0.0534
      6  CG         9.7640   39.0610   44.5320 C.ar  425  TYR425     -0.0201
      7  CD1        9.3690   39.9300   45.5390 C.ar  425  TYR425     -0.0009
      8  CD2       10.9820   39.3040   43.8800 C.ar  425  TYR425     -0.0009
      9  CE1       10.1440   41.0130   45.8970 C.ar  425  TYR425      0.0417
     10  CE2       11.7630   40.3780   44.2260 C.ar  425  TYR425      0.0417
     11  CZ        11.3420   41.2420   45.2430 C.ar  425  TYR425      0.1957
     12  OH        12.1110   42.3470   45.6070 O.3   425  TYR425     -0.2866
     13  N         13.8980   36.7650   48.0990 N.3   487  HIS487     -0.1227
     14  CA        14.0330   37.3610   46.7860 C.3   487  HIS487      0.1737
     15  C         14.6450   36.3070   45.8340 C.2   487  HIS487      0.2438
     16  O         15.2680   35.3430   46.3130 O.2   487  HIS487     -0.2733
     17  CB        14.9240   38.5830   46.9170 C.3   487  HIS487      0.0758
     18  CG        14.2580   39.7080   47.6220 C.ar  487  HIS487      0.0818
     19  ND1       14.8760   40.8800   47.9360 N.ar  487  HIS487     -0.2268
     20  CD2       12.9920   39.8510   48.0800 C.ar  487  HIS487      0.1154
     21  CE1       14.0500   41.7110   48.5320 C.ar  487  HIS487      0.1986
     22  NE2       12.8860   41.1010   48.6340 N.ar  487  HIS487     -0.2212
     23  N         14.5130   36.4700   44.4880 N.am  488  PRO488     -0.2718
     24  CA        14.9720   35.3630   43.6340 C.3   488  PRO488      0.1535
     25  C         16.4700   35.1950   43.7880 C.2   488  PRO488      0.2598
     26  O         17.1480   36.1820   44.0460 O.2   488  PRO488     -0.2715
     27  CB        14.6240   35.8450   42.2300 C.3   488  PRO488      0.0310
     28  CG        13.4240   36.7000   42.4550 C.3   488  PRO488      0.0237
     29  CD        13.9030   37.5160   43.6320 C.3   488  PRO488      0.0939
     30  N         16.9700   33.9670   43.7700 N.am  489  TYR489     -0.1974
     31  CA        18.4120   33.7200   43.8710 C.3   489  TYR489      0.1639
     32  C         18.8500   32.4550   43.1880 C.2   489  TYR489      0.2290
     33  O         18.1080   31.4660   43.0770 O.2   489  TYR489     -0.2864
     34  CB        18.9110   33.6810   45.3170 C.3   489  TYR489      0.0560
     35  CG        18.2540   32.6680   46.2080 C.ar  489  TYR489     -0.0198
     36  CD1       18.5810   31.3020   46.1390 C.ar  489  TYR489     -0.0009
     37  CD2       17.2950   33.0800   47.1080 C.ar  489  TYR489     -0.0009
     38  CE1       17.9400   30.3910   46.9620 C.ar  489  TYR489      0.0417
     39  CE2       16.6620   32.2080   47.9160 C.ar  489  TYR489      0.0417
     40  CZ        16.9650   30.8710   47.8500 C.ar  489  TYR489      0.1957
     41  OH        16.2300   30.0370   48.6560 O.3   489  TYR489     -0.2866
     42  N         24.6580   32.9020   44.9610 N.3   493  LYS493     -0.1231
     43  CA        23.9490   34.0740   45.4040 C.3   493  LYS493      0.1693
     44  C         22.9730   33.6880   46.4790 C.2   493  LYS493      0.2593
     45  O         22.6320   34.5090   47.3160 O.2   493  LYS493     -0.2718
     46  CB        23.2240   34.7240   44.2610 C.3   493  LYS493      0.0285
     47  CG        24.0080   35.8140   43.6320 C.3   493  LYS493      0.0035
     48  CD        23.4570   37.1580   44.0920 C.3   493  LYS493      0.0206
     49  CE        24.5160   38.3120   43.9370 C.3   493  LYS493      0.1093
     50  NZ        23.8620   39.6780   44.2020 N.3   493  LYS493     -0.1314
     51  N         22.5900   32.4180   46.5020 N.am  494  GLY494     -0.1942
     52  CA        21.6260   31.9470   47.4660 C.3   494  GLY494      0.2014
     53  C         22.1790   31.4430   48.7720 C.2   494  GLY494      0.2639
     54  O         21.4080   31.2690   49.7200 O.2   494  GLY494     -0.2714
     55  N         23.4640   31.0790   48.8050 N.am  495  ASP495     -0.1957
     56  CA        24.0600   30.5990   50.0520 C.3   495  ASP495      0.1840
     57  C         23.6880   31.6290   51.1220 C.2   495  ASP495      0.2622
     58  O         23.9040   32.8190   50.9870 O.2   495  ASP495     -0.2715
     59  CB        25.5770   30.4290   49.9230 C.3   495  ASP495      0.1450
     60  CG        25.9540   29.2360   49.0660 C.2   495  ASP495      0.3671
     61  OD1       25.0840   28.3420   48.8660 O.co2 495  ASP495     -0.2456
     62  OD2       27.1180   29.1830   48.5870 O.co2 495  ASP495     -0.2456
     63  N         23.0270   31.1680   52.1520 N.am  496  ASN496     -0.1958
     64  CA        22.5750   32.0670   53.1640 C.3   496  ASN496      0.1819
     65  C         22.6930   31.3620   54.4950 C.2   496  ASN496      0.2621
     66  O         22.1430   30.2640   54.6580 O.2   496  ASN496     -0.2715
     67  CB        21.1250   32.3990   52.8750 C.3   496  ASN496      0.1195
     68  CG        20.6310   33.4600   53.7430 C.2   496  ASN496      0.2630
     69  OD1       20.9770   33.5110   54.9010 O.2   496  ASN496     -0.2716
     70  ND2       19.8370   34.3520   53.1990 N.am  496  ASN496     -0.0877
     71  N         23.3980   31.9950   55.4420 N.am  497  LEU497     -0.1963
     72  CA        23.6230   31.4310   56.7870 C.3   497  LEU497      0.1728
     73  C         22.5770   31.7960   57.8540 C.2   497  LEU497      0.2616
     74  O         22.4130   31.0820   58.8320 O.2   497  LEU497     -0.2715
     75  CB        25.0140   31.8560   57.3140 C.3   497  LEU497      0.0311
     76  CG        26.2960   31.3490   56.6440 C.3   497  LEU497      0.0022
     77  CD1       27.4790   31.9680   57.3110 C.3   497  LEU497      0.0001
     78  CD2       26.3750   29.8230   56.6650 C.3   497  LEU497      0.0001
     79  N         21.9120   32.9270   57.6770 N.am  498  ASN498     -0.1972
     80  CA        20.9620   33.4180   58.6390 C.3   498  ASN498      0.1688
     81  C         19.5450   32.9840   58.3680 C.2   498  ASN498      0.2292
     82  O         18.7380   32.9660   59.2750 O.2   498  ASN498     -0.2864
     83  CB        21.0400   34.9470   58.7040 C.3   498  ASN498      0.1181
     84  CG        20.4920   35.6310   57.4370 C.2   498  ASN498      0.2629
     85  OD1       19.3180   35.4570   57.0460 O.2   498  ASN498     -0.2716
     86  ND2       21.3540   36.4170   56.7950 N.am  498  ASN498     -0.0877
     87  N         16.7240   34.2900   57.2560 N.3   500  THR500     -0.1218
     88  CA        15.5860   35.0610   57.7540 C.3   500  THR500      0.1862
     89  C         15.1090   35.8580   56.5550 C.2   500  THR500      0.2287
     90  O         15.9370   36.1920   55.7120 O.2   500  THR500     -0.2866
     91  CB        16.0440   35.9880   58.8460 C.3   500  THR500      0.1770
     92  OG1       16.9920   36.9020   58.2940 O.3   500  THR500     -0.2211
     93  CG2       16.7310   35.1970   59.9470 C.3   500  THR500      0.0375
     94  N         13.8700   38.9800   54.1060 N.3   502  PRO502     -0.2102
     95  CA        14.2050   40.4030   54.1340 C.3   502  PRO502      0.1504
     96  C         12.9760   41.2130   54.5090 C.2   502  PRO502      0.2575
     97  O         11.8610   40.7500   54.3630 O.2   502  PRO502     -0.2718
     98  CB        14.6580   40.6750   52.6880 C.3   502  PRO502      0.0282
     99  CG        13.8590   39.7370   51.8700 C.3   502  PRO502      0.0208
    100  CD        13.8540   38.4570   52.7220 C.3   502  PRO502      0.0893
    101  N         13.2030   42.3810   55.0830 N.am  503  GLU503     -0.1980
    102  CA        12.1330   43.3050   55.4350 C.3   503  GLU503      0.1602
    103  C         11.8660   44.3490   54.3420 C.2   503  GLU503      0.2287
    104  O         12.7610   44.7200   53.5720 O.2   503  GLU503     -0.2864
    105  CB        12.4810   44.0460   56.7000 C.3   503  GLU503      0.0415
    106  CG        12.4850   43.1630   57.8520 C.3   503  GLU503      0.1163
    107  CD        11.1090   42.7100   58.1700 C.2   503  GLU503      0.3649
    108  OE1       10.3220   43.5950   58.5940 O.co2 503  GLU503     -0.2457
    109  OE2       10.8220   41.4950   57.9610 O.co2 503  GLU503     -0.2457
    110  N         13.2640   27.6470   50.5630 N.3   526  ARG526     -0.1245
    111  CA        13.6470   26.7100   51.6060 C.3   526  ARG526      0.1563
    112  C         12.9190   27.0470   52.9100 C.2   526  ARG526      0.2260
    113  O         12.3540   28.1390   53.0460 O.2   526  ARG526     -0.2867
    114  CB        15.1540   26.8700   51.8130 C.3   526  ARG526      0.0307
    115  CG        15.5290   28.3180   51.9340 C.3   526  ARG526      0.0489
    116  CD        16.9610   28.4830   51.8520 C.3   526  ARG526      0.2205
    117  NE        17.2840   29.8000   51.3520 N.pl3 526  ARG526     -0.0865
    118  CZ        18.5300   30.2050   51.1430 C.cat 526  ARG526      0.5346
    119  NH1       19.5450   29.3850   51.4050 N.pl3 526  ARG526      0.1354
    120  NH2       18.7620   31.4160   50.6760 N.pl3 526  ARG526      0.1354
@<TRIPOS>BOND
     1     1     2    1
     2    27    28    1
     3    27    24    1
     4    28    29    1
     5    33    32    2
     6     2     3    1
     7     2     5    1
     8    32    31    1
     9     3     4    2
    10    47    48    1
    11    47    46    1
    12    29    23    1
    13    24    25    1
    14    24    23    1
    15    30    25   am
    16    30    31    1
    17    25    26    2
    18    31    34    1
    19     8    10   ar
    20     8     6   ar
    21    49    48    1
    22    49    50    1
    23     5     6    1
    24    10    11   ar
    25    46    43    1
    26    23    15   am
    27     6     7   ar
    28    42    43    1
    29    11    12    1
    30    11     9   ar
    31    34    35    1
    32    43    44    1
    33     7     9   ar
    34    15    16    2
    35    15    14    1
    36    36    35   ar
    37    36    38   ar
    38    35    37   ar
    39    44    51   am
    40    44    45    2
    41    51    52    1
    42    14    17    1
    43    14    13    1
    44    17    18    1
    45    38    40   ar
    46    37    39   ar
    47    52    53    1
    48    18    19   ar
    49    18    20   ar
    50    40    39   ar
    51    40    41    1
    52    19    21   ar
    53    20    22   ar
    54    21    22   ar
    55    62    60   ar
    56    53    55   am
    57    53    54    2
    58    55    56    1
    59    61    60   ar
    60    60    59    1
    61    59    56    1
    62    56    57    1
    63   110   111    1
    64   120   118    1
    65    58    57    2
    66    57    63   am
    67   118   117    2
    68   118   119    1
    69   117   116    1
    70   111   114    1
    71   111   112    1
    72   114   115    1
    73   116   115    1
    74    99    98    1
    75    99   100    1
    76    63    64    1
    77    98    95    1
    78   100    94    1
    79    67    64    1
    80    67    68    1
    81   112   113    2
    82    64    65    1
    83    70    68   am
    84   104   103    2
    85    68    69    2
    86    94    95    1
    87    95    96    1
    88   103   102    1
    89    97    96    2
    90    65    66    2
    91    65    71   am
    92    96   101   am
    93   101   102    1
    94   102   105    1
    95    71    72    1
    96    90    89    2
    97    89    88    1
    98    76    78    1
    99    76    77    1
   100    76    75    1
   101   105   106    1
   102    72    75    1
   103    72    73    1
   104    86    84   am
   105    85    84    2
   106    87    88    1
   107    84    83    1
   108    79    73   am
   109    79    80    1
   110    88    91    1
   111   106   107    1
   112    73    74    2
   113   109   107   ar
   114   107   108   ar
   115    92    91    1
   116    81    80    1
   117    81    82    2
   118    80    83    1
   119    91    93    1
