@<TRIPOS>MOLECULE
tmp/1iewA03.pdb
 138 133 0 0 0
SMALL
GASTEIGER

@<TRIPOS>ATOM
      1  N         24.9540   25.6510   23.9180 N.3    54  LEU54      -0.1245
      2  CA        24.0750   25.7900   25.0650 C.3    54  LEU54       0.1561
      3  C         23.7000   27.2500   25.2260 C.2    54  LEU54       0.2260
      4  O         24.3080   28.1490   24.6420 O.2    54  LEU54      -0.2867
      5  CB        24.7400   25.3130   26.3620 C.3    54  LEU54       0.0270
      6  CG        25.5050   26.3880   27.1450 C.3    54  LEU54       0.0019
      7  CD1       25.5380   26.0400   28.6140 C.3    54  LEU54       0.0001
      8  CD2       26.9040   26.5330   26.5810 C.3    54  LEU54       0.0001
      9  N         23.1750   29.6510   28.3960 N.3    56  GLY56      -0.1210
     10  CA        23.2440   29.7530   29.8430 C.3    56  GLY56       0.1956
     11  C         22.0980   30.5830   30.3960 C.2    56  GLY56       0.2612
     12  O         21.3210   31.1560   29.6360 O.2    56  GLY56      -0.2717
     13  N         21.9760   30.6560   31.7160 N.am   57  GLY57      -0.1956
     14  CA        20.9060   31.4510   32.2860 C.3    57  GLY57       0.1869
     15  C         20.8200   32.8270   31.6410 C.2    57  GLY57       0.2309
     16  O         21.8140   33.5530   31.5620 O.2    57  GLY57      -0.2863
     17  N         18.8100   25.2800   30.2990 N.3    95  ASP95      -0.1239
     18  CA        18.3040   25.0060   31.6310 C.3    95  ASP95       0.1674
     19  C         16.7900   25.1400   31.7440 C.2    95  ASP95       0.2266
     20  O         16.2720   26.1810   32.1510 O.2    95  ASP95      -0.2867
     21  CB        18.9610   25.9290   32.6510 C.3    95  ASP95       0.1410
     22  CG        20.3820   25.5370   32.9490 C.2    95  ASP95       0.3668
     23  OD1       20.5890   24.4370   33.4980 O.co2  95  ASP95      -0.2456
     24  OD2       21.2920   26.3270   32.6330 O.co2  95  ASP95      -0.2456
     25  N         18.8500   20.5170   30.7870 N.3   144  PHE144     -0.1241
     26  CA        19.7230   20.1770   31.9020 C.3   144  PHE144      0.1605
     27  C         18.9180   19.9340   33.1600 C.2   144  PHE144      0.2264
     28  O         19.0270   20.6820   34.1280 O.2   144  PHE144     -0.2867
     29  CB        20.7320   21.2980   32.1480 C.3   144  PHE144      0.0534
     30  CG        21.6130   21.5770   30.9740 C.ar  144  PHE144     -0.0203
     31  CD1       22.2500   20.5320   30.3050 C.ar  144  PHE144     -0.0042
     32  CD2       21.8130   22.8780   30.5340 C.ar  144  PHE144     -0.0042
     33  CE1       23.0760   20.7770   29.2140 C.ar  144  PHE144     -0.0003
     34  CE2       22.6400   23.1400   29.4400 C.ar  144  PHE144     -0.0003
     35  CZ        23.2730   22.0850   28.7790 C.ar  144  PHE144     -0.0000
     36  N         20.9440   26.5330   46.3880 N.3   158  ARG158     -0.1245
     37  CA        20.2870   25.6960   45.3900 C.3   158  ARG158      0.1563
     38  C         19.3520   24.6730   46.0210 C.2   158  ARG158      0.2260
     39  O         18.9040   23.7430   45.3530 O.2   158  ARG158     -0.2867
     40  CB        21.3250   24.9680   44.5300 C.3   158  ARG158      0.0307
     41  CG        22.4130   25.8650   43.9820 C.3   158  ARG158      0.0489
     42  CD        23.1700   25.1850   42.8620 C.3   158  ARG158      0.2205
     43  NE        22.3480   25.0530   41.6630 N.pl3 158  ARG158     -0.0865
     44  CZ        22.8040   24.6280   40.4880 C.cat 158  ARG158      0.5346
     45  NH1       24.0810   24.2860   40.3560 N.pl3 158  ARG158      0.1354
     46  NH2       21.9890   24.5650   39.4370 N.pl3 158  ARG158      0.1354
     47  N         21.6660   15.7940   37.3620 N.3   206  LYS206     -0.1231
     48  CA        22.7400   16.5970   37.9370 C.3   206  LYS206      0.1693
     49  C         22.5240   16.9040   39.4230 C.2   206  LYS206      0.2592
     50  O         21.3830   16.8430   39.8810 O.2   206  LYS206     -0.2718
     51  CB        22.8710   17.9100   37.1470 C.3   206  LYS206      0.0285
     52  CG        21.6260   18.7880   37.1980 C.3   206  LYS206      0.0035
     53  CD        21.7810   20.0720   36.3980 C.3   206  LYS206      0.0206
     54  CE        20.6260   21.0210   36.6980 C.3   206  LYS206      0.1093
     55  NZ        20.5640   22.2110   35.8060 N.3   206  LYS206     -0.1314
     56  N         23.5850   17.2010   40.1740 N.am  207  HIS207     -0.1976
     57  CA        24.9760   17.2590   39.7320 C.3   207  HIS207      0.1656
     58  C         25.7660   16.1580   40.4400 C.2   207  HIS207      0.2291
     59  O         25.8630   16.1430   41.6670 O.2   207  HIS207     -0.2864
     60  CB        25.5840   18.6270   40.0390 C.3   207  HIS207      0.0771
     61  CG        24.7140   19.7750   39.6390 C.ar  207  HIS207      0.0820
     62  ND1       23.7310   20.2840   40.4600 N.ar  207  HIS207     -0.2267
     63  CD2       24.6630   20.5020   38.4970 C.ar  207  HIS207      0.1154
     64  CE1       23.1140   21.2760   39.8440 C.ar  207  HIS207      0.1986
     65  NE2       23.6600   21.4280   38.6510 N.ar  207  HIS207     -0.2212
     66  N         25.5150   15.5030   34.3830 N.3   250  MET250     -0.1245
     67  CA        26.4060   16.6440   34.5480 C.3   250  MET250      0.1570
     68  C         27.1600   16.5020   35.8620 C.2   250  MET250      0.2261
     69  O         26.5830   16.1170   36.8790 O.2   250  MET250     -0.2867
     70  CB        25.6080   17.9420   34.5570 C.3   250  MET250      0.0387
     71  CG        26.4680   19.1830   34.6060 C.3   250  MET250      0.0595
     72  SD        25.4860   20.6820   34.5000 S.3   250  MET250     -0.1393
     73  CE        24.5460   20.3570   33.0220 C.3   250  MET250      0.0692
     74  N         30.2950   20.9550   40.6760 N.3   253  TYR253     -0.1241
     75  CA        31.4640   21.8030   40.9350 C.3   253  TYR253      0.1605
     76  C         32.0600   21.3850   42.2710 C.2   253  TYR253      0.2264
     77  O         33.2440   21.5920   42.5260 O.2   253  TYR253     -0.2867
     78  CB        31.0810   23.2760   41.1060 C.3   253  TYR253      0.0534
     79  CG        30.5980   24.0240   39.8920 C.ar  253  TYR253     -0.0201
     80  CD1       31.4260   24.2210   38.7850 C.ar  253  TYR253     -0.0009
     81  CD2       29.3360   24.6200   39.8860 C.ar  253  TYR253     -0.0009
     82  CE1       31.0090   25.0040   37.6990 C.ar  253  TYR253      0.0417
     83  CE2       28.9090   25.4020   38.8150 C.ar  253  TYR253      0.0417
     84  CZ        29.7480   25.5940   37.7250 C.ar  253  TYR253      0.1957
     85  OH        29.3270   26.3950   36.6850 O.3   253  TYR253     -0.2866
     86  N         30.1070   21.1440   33.9940 N.3   285  ASP285     -0.1225
     87  CA        29.2840   22.2850   34.3280 C.3   285  ASP285      0.1805
     88  C         30.0620   23.4840   33.8050 C.2   285  ASP285      0.2597
     89  O         31.2340   23.3640   33.4480 O.2   285  ASP285     -0.2718
     90  CB        29.1110   22.4040   35.8400 C.3   285  ASP285      0.1424
     91  CG        27.7920   23.0580   36.2370 C.2   285  ASP285      0.3668
     92  OD1       27.3410   24.1660   35.5520 O.co2 285  ASP285     -0.2456
     93  OD2       27.1740   22.5520   37.1950 O.co2 285  ASP285     -0.2456
     94  N         29.3970   24.6300   33.7650 N.am  286  TRP286     -0.1976
     95  CA        29.9650   25.8900   33.3020 C.3   286  TRP286      0.1640
     96  C         31.3360   26.1580   33.9200 C.2   286  TRP286      0.2290
     97  O         31.4430   26.4830   35.1040 O.2   286  TRP286     -0.2864
     98  CB        28.9740   26.9970   33.6580 C.3   286  TRP286      0.0576
     99  CG        29.2510   28.3490   33.1120 C.ar  286  TRP286      0.0006
    100  CD1       30.1150   29.2720   33.6130 C.ar  286  TRP286      0.0946
    101  CD2       28.5750   28.9790   32.0180 C.ar  286  TRP286      0.0152
    102  NE1       30.0130   30.4450   32.9080 N.ar  286  TRP286     -0.2442
    103  CE2       29.0740   30.2920   31.9220 C.ar  286  TRP286      0.0810
    104  CE3       27.5910   28.5610   31.1130 C.ar  286  TRP286      0.0012
    105  CZ2       28.6220   31.1960   30.9550 C.ar  286  TRP286      0.0191
    106  CZ3       27.1420   29.4590   30.1520 C.ar  286  TRP286      0.0001
    107  CH2       27.6590   30.7610   30.0820 C.ar  286  TRP286      0.0015
    108  N         31.6350   21.7450   28.8720 N.3   316  MET316     -0.1245
    109  CA        30.8840   22.9850   28.7680 C.3   316  MET316      0.1570
    110  C         31.9180   24.0810   29.0140 C.2   316  MET316      0.2261
    111  O         32.0460   24.5940   30.1270 O.2   316  MET316     -0.2867
    112  CB        29.8050   23.0150   29.8440 C.3   316  MET316      0.0387
    113  CG        28.6510   23.9340   29.5360 C.3   316  MET316      0.0595
    114  SD        27.3650   23.7730   30.7720 S.3   316  MET316     -0.1393
    115  CE        27.4550   25.3120   31.4550 C.3   316  MET316      0.0692
    116  N         16.1420   31.1610   38.1300 N.3   430  TRP430     -0.1241
    117  CA        15.9890   30.4860   36.8380 C.3   430  TRP430      0.1605
    118  C         14.6850   30.8420   36.1330 C.2   430  TRP430      0.2264
    119  O         13.9150   29.9590   35.7590 O.2   430  TRP430     -0.2867
    120  CB        16.0590   28.9630   36.9980 C.3   430  TRP430      0.0550
    121  CG        17.3990   28.4400   37.4230 C.ar  430  TRP430      0.0003
    122  CD1       17.7250   27.9110   38.6380 C.ar  430  TRP430      0.0946
    123  CD2       18.5870   28.3840   36.6290 C.ar  430  TRP430      0.0152
    124  NE1       19.0410   27.5260   38.6500 N.ar  430  TRP430     -0.2442
    125  CE2       19.5960   27.8070   37.4300 C.ar  430  TRP430      0.0810
    126  CE3       18.9000   28.7660   35.3190 C.ar  430  TRP430      0.0012
    127  CZ2       20.8990   27.6020   36.9620 C.ar  430  TRP430      0.0191
    128  CZ3       20.1990   28.5620   34.8530 C.ar  430  TRP430      0.0001
    129  CH2       21.1790   27.9870   35.6730 C.ar  430  TRP430      0.0015
    130  N         22.1510   29.6560   42.6320 N.3   491  GLU491     -0.1245
    131  CA        23.4940   29.2210   42.9780 C.3   491  GLU491      0.1567
    132  C         24.0660   30.0070   44.1620 C.2   491  GLU491      0.2260
    133  O         23.3500   30.2930   45.1200 O.2   491  GLU491     -0.2867
    134  CB        24.4030   29.3130   41.7380 C.3   491  GLU491      0.0388
    135  CG        23.9350   28.3870   40.6010 C.3   491  GLU491      0.1160
    136  CD        24.7940   28.4530   39.3450 C.2   491  GLU491      0.3649
    137  OE1       26.0240   28.2510   39.4550 O.co2 491  GLU491     -0.2457
    138  OE2       24.2330   28.6900   38.2470 O.co2 491  GLU491     -0.2457
@<TRIPOS>BOND
     1     1     2    1
     2     4     3    2
     3     2     3    1
     4     2     5    1
     5     5     6    1
     6     8     6    1
     7     6     7    1
     8     9    10    1
     9   109   108    1
    10   109   110    1
    11   109   112    1
    12    35    33   ar
    13    35    34   ar
    14   110   111    2
    15    33    31   ar
    16    34    32   ar
    17   113   112    1
    18   113   114    1
    19    12    11    2
    20    10    11    1
    21   107   106   ar
    22   107   105   ar
    23   106   104   ar
    24    17    18    1
    25    31    30   ar
    26    11    13   am
    27    32    30   ar
    28   114   115    1
    29    25    26    1
    30   105   103   ar
    31    30    29    1
    32   104   101   ar
    33    16    15    2
    34    18    19    1
    35    18    21    1
    36    15    14    1
    37    13    14    1
    38    19    20    2
    39    26    29    1
    40    26    27    1
    41   103   101   ar
    42   103   102   ar
    43   101    99   ar
    44    24    22   ar
    45    21    22    1
    46   102   100   ar
    47    22    23   ar
    48    73    72    1
    49    99   100   ar
    50    99    98    1
    51    27    28    2
    52    95    98    1
    53    95    94    1
    54    95    96    1
    55    89    88    2
    56    94    88   am
    57    88    87    1
    58    96    97    2
    59    86    87    1
    60    87    90    1
    61    66    67    1
    62    72    71    1
    63    67    70    1
    64    67    68    1
    65    70    71    1
    66   128   126   ar
    67   128   129   ar
    68   126   123   ar
    69    92    91   ar
    70   129   127   ar
    71   119   118    2
    72    55    54    1
    73    90    91    1
    74    68    69    2
    75   118   117    1
    76    91    93   ar
    77    53    54    1
    78    53    52    1
    79   123   121   ar
    80   123   125   ar
    81    85    84    1
    82   117   120    1
    83   117   116    1
    84   127   125   ar
    85   120   121    1
    86    51    52    1
    87    51    48    1
    88    47    48    1
    89   121   122   ar
    90   125   124   ar
    91    82    84   ar
    92    82    80   ar
    93    84    83   ar
    94    48    49    1
    95   138   136   ar
    96    63    65   ar
    97    63    61   ar
    98   122   124   ar
    99    65    64   ar
   100    80    79   ar
   101    83    81   ar
   102   136   137   ar
   103   136   135    1
   104    49    50    2
   105    49    56   am
   106    46    44    1
   107    61    60    1
   108    61    62   ar
   109    57    60    1
   110    57    56    1
   111    57    58    1
   112    64    62   ar
   113    81    79   ar
   114    79    78    1
   115    45    44    1
   116    58    59    2
   117    44    43    2
   118   135   134    1
   119    74    75    1
   120    75    78    1
   121    75    76    1
   122    43    42    1
   123   134   131    1
   124    76    77    2
   125   130   131    1
   126    42    41    1
   127   131   132    1
   128    41    40    1
   129   132   133    2
   130    40    37    1
   131    39    38    2
   132    37    38    1
   133    37    36    1
