@<TRIPOS>MOLECULE
tmp/1iexA02.pdb
 172 166 0 0 0
SMALL
GASTEIGER

@<TRIPOS>ATOM
      1  N         24.3230   26.1720   24.3640 N.3    54  LEU54      -0.1245
      2  CA        23.4070   26.3590   25.4780 C.3    54  LEU54       0.1561
      3  C         23.1460   27.8380   25.6820 C.2    54  LEU54       0.2260
      4  O         23.8470   28.6890   25.1300 O.2    54  LEU54      -0.2867
      5  CB        23.9710   25.7930   26.7900 C.3    54  LEU54       0.0270
      6  CG        24.7770   26.7480   27.6910 C.3    54  LEU54       0.0019
      7  CD1       24.6740   26.2960   29.1460 C.3    54  LEU54       0.0001
      8  CD2       26.2330   26.8010   27.2510 C.3    54  LEU54       0.0001
      9  N         22.7170   30.2990   28.9340 N.3    56  GLY56      -0.1210
     10  CA        22.8410   30.3420   30.3820 C.3    56  GLY56       0.1956
     11  C         21.6330   31.1390   30.8600 C.2    56  GLY56       0.2612
     12  O         20.8540   31.6200   30.0370 O.2    56  GLY56      -0.2717
     13  N         21.4520   31.2920   32.1650 N.am   57  GLY57      -0.1956
     14  CA        20.3010   32.0450   32.6300 C.3    57  GLY57       0.1869
     15  C         20.2480   33.4260   32.0030 C.2    57  GLY57       0.2309
     16  O         21.2580   34.1300   31.9830 O.2    57  GLY57      -0.2863
     17  N         18.2810   25.7010   30.8420 N.3    95  ASP95      -0.1239
     18  CA        17.7470   25.4090   32.1660 C.3    95  ASP95       0.1674
     19  C         16.2420   25.6150   32.2510 C.2    95  ASP95       0.2266
     20  O         15.7830   26.7210   32.5480 O.2    95  ASP95      -0.2867
     21  CB        18.3940   26.2870   33.2420 C.3    95  ASP95       0.1410
     22  CG        19.8470   25.9440   33.4830 C.2    95  ASP95       0.3668
     23  OD1       20.7250   26.6420   32.9350 O.co2  95  ASP95      -0.2456
     24  OD2       20.1030   24.9710   34.2200 O.co2  95  ASP95      -0.2456
     25  N         18.3560   20.9800   31.3430 N.3   144  PHE144     -0.1241
     26  CA        19.2440   20.7290   32.4740 C.3   144  PHE144      0.1605
     27  C         18.4260   20.5040   33.7580 C.2   144  PHE144      0.2264
     28  O         18.5500   21.2540   34.7310 O.2   144  PHE144     -0.2867
     29  CB        20.2010   21.9130   32.6550 C.3   144  PHE144      0.0534
     30  CG        21.1560   22.1130   31.5060 C.ar  144  PHE144     -0.0203
     31  CD1       21.4550   23.3960   31.0500 C.ar  144  PHE144     -0.0042
     32  CD2       21.7770   21.0210   30.8890 C.ar  144  PHE144     -0.0042
     33  CE1       22.3620   23.5940   29.9900 C.ar  144  PHE144     -0.0003
     34  CE2       22.6840   21.2080   29.8310 C.ar  144  PHE144     -0.0003
     35  CZ        22.9760   22.5010   29.3810 C.ar  144  PHE144     -0.0000
     36  N         20.4090   27.2540   47.0280 N.3   158  ARG158     -0.1245
     37  CA        19.6910   26.4410   46.0560 C.3   158  ARG158      0.1563
     38  C         18.7810   25.4080   46.6970 C.2   158  ARG158      0.2260
     39  O         18.3470   24.4640   46.0400 O.2   158  ARG158     -0.2867
     40  CB        20.6830   25.7420   45.1300 C.3   158  ARG158      0.0307
     41  CG        21.6970   26.6940   44.5100 C.3   158  ARG158      0.0489
     42  CD        22.5300   26.0070   43.4440 C.3   158  ARG158      0.2205
     43  NE        21.7850   25.8300   42.2020 N.pl3 158  ARG158     -0.0865
     44  CZ        22.3410   25.4600   41.0520 C.cat 158  ARG158      0.5346
     45  NH1       23.6470   25.2230   40.9930 N.pl3 158  ARG158      0.1354
     46  NH2       21.5980   25.3520   39.9570 N.pl3 158  ARG158      0.1354
     47  N         21.1590   16.3250   38.1310 N.3   206  LYS206     -0.1231
     48  CA        22.2540   17.1250   38.6700 C.3   206  LYS206      0.1693
     49  C         22.0510   17.4180   40.1570 C.2   206  LYS206      0.2592
     50  O         20.9240   17.2810   40.6390 O.2   206  LYS206     -0.2718
     51  CB        22.3720   18.4470   37.8910 C.3   206  LYS206      0.0285
     52  CG        21.1550   19.3720   38.0210 C.3   206  LYS206      0.0035
     53  CD        21.2960   20.6380   37.1780 C.3   206  LYS206      0.0206
     54  CE        20.1090   21.5790   37.3840 C.3   206  LYS206      0.1093
     55  NZ        20.1510   22.7710   36.4970 N.3   206  LYS206     -0.1314
     56  N         23.1210   17.7010   40.8970 N.am  207  HIS207     -0.1976
     57  CA        24.5110   17.7340   40.4470 C.3   207  HIS207      0.1656
     58  C         25.2220   16.5980   41.1930 C.2   207  HIS207      0.2291
     59  O         25.1360   16.5010   42.4210 O.2   207  HIS207     -0.2864
     60  CB        25.1670   19.0790   40.7790 C.3   207  HIS207      0.0771
     61  CG        24.3610   20.2710   40.3640 C.ar  207  HIS207      0.0820
     62  ND1       23.2680   20.7160   41.0790 N.ar  207  HIS207     -0.2267
     63  CD2       24.4890   21.1140   39.3110 C.ar  207  HIS207      0.1154
     64  CE1       22.7610   21.7830   40.4850 C.ar  207  HIS207      0.1986
     65  NE2       23.4830   22.0450   39.4100 N.ar  207  HIS207     -0.2212
     66  N         28.6610   25.4650   46.5080 N.3   220  GLU220     -0.1245
     67  CA        29.8930   24.9970   45.8730 C.3   220  GLU220      0.1567
     68  C         31.0340   24.6250   46.8230 C.2   220  GLU220      0.2260
     69  O         32.1490   24.3650   46.3680 O.2   220  GLU220     -0.2867
     70  CB        30.4000   26.0650   44.8890 C.3   220  GLU220      0.0388
     71  CG        29.4240   26.4220   43.7710 C.3   220  GLU220      0.1160
     72  CD        29.9150   27.5780   42.9050 C.2   220  GLU220      0.3649
     73  OE1       31.1210   27.6040   42.5650 O.co2 220  GLU220     -0.2457
     74  OE2       29.0930   28.4550   42.5550 O.co2 220  GLU220     -0.2457
     75  N         25.0590   15.7960   35.1750 N.3   250  MET250     -0.1245
     76  CA        25.9520   16.9460   35.3200 C.3   250  MET250      0.1570
     77  C         26.7200   16.8500   36.6380 C.2   250  MET250      0.2261
     78  O         26.1400   16.5150   37.6680 O.2   250  MET250     -0.2867
     79  CB        25.1520   18.2560   35.2880 C.3   250  MET250      0.0387
     80  CG        26.0160   19.5110   35.3230 C.3   250  MET250      0.0595
     81  SD        25.0780   21.0570   35.3950 S.3   250  MET250     -0.1393
     82  CE        24.2870   21.0620   33.7610 C.3   250  MET250      0.0692
     83  N         29.9170   21.3790   41.4490 N.3   253  TYR253     -0.1241
     84  CA        31.0770   22.2350   41.7230 C.3   253  TYR253      0.1605
     85  C         31.6870   21.8310   43.0650 C.2   253  TYR253      0.2264
     86  O         32.8820   22.0150   43.2970 O.2   253  TYR253     -0.2867
     87  CB        30.6640   23.7030   41.8710 C.3   253  TYR253      0.0534
     88  CG        30.2190   24.4310   40.6260 C.ar  253  TYR253     -0.0201
     89  CD1       28.9820   25.0820   40.5900 C.ar  253  TYR253     -0.0009
     90  CD2       31.0650   24.5620   39.5250 C.ar  253  TYR253     -0.0009
     91  CE1       28.6040   25.8510   39.4970 C.ar  253  TYR253      0.0417
     92  CE2       30.6950   25.3360   38.4180 C.ar  253  TYR253      0.0417
     93  CZ        29.4660   25.9780   38.4170 C.ar  253  TYR253      0.1957
     94  OH        29.1080   26.7740   37.3520 O.3   253  TYR253     -0.2866
     95  N         29.7200   21.3950   34.8700 N.3   285  ASP285     -0.1225
     96  CA        28.8770   22.5490   35.1460 C.3   285  ASP285      0.1805
     97  C         29.5760   23.7500   34.5090 C.2   285  ASP285      0.2597
     98  O         30.6660   23.6060   33.9600 O.2   285  ASP285     -0.2718
     99  CB        28.7130   22.7700   36.6470 C.3   285  ASP285      0.1424
    100  CG        27.4840   23.6010   36.9720 C.2   285  ASP285      0.3668
    101  OD1       27.1780   24.5260   36.1880 O.co2 285  ASP285     -0.2456
    102  OD2       26.8270   23.3350   38.0030 O.co2 285  ASP285     -0.2456
    103  N         28.9530   24.9220   34.5860 N.am  286  TRP286     -0.1976
    104  CA        29.4880   26.1490   33.9940 C.3   286  TRP286      0.1640
    105  C         30.8710   26.5120   34.5480 C.2   286  TRP286      0.2290
    106  O         31.0030   26.9140   35.7080 O.2   286  TRP286     -0.2864
    107  CB        28.4770   27.2770   34.2230 C.3   286  TRP286      0.0576
    108  CG        28.8360   28.6120   33.6420 C.ar  286  TRP286      0.0006
    109  CD1       29.8120   29.4700   34.0810 C.ar  286  TRP286      0.0946
    110  CD2       28.1730   29.2780   32.5630 C.ar  286  TRP286      0.0152
    111  NE1       29.7880   30.6320   33.3430 N.ar  286  TRP286     -0.2442
    112  CE2       28.7930   30.5420   32.4060 C.ar  286  TRP286      0.0810
    113  CE3       27.1130   28.9330   31.7140 C.ar  286  TRP286      0.0012
    114  CZ2       28.3850   31.4660   31.4290 C.ar  286  TRP286      0.0191
    115  CZ3       26.7050   29.8540   30.7390 C.ar  286  TRP286      0.0001
    116  CH2       27.3440   31.1060   30.6090 C.ar  286  TRP286      0.0015
    117  N         37.2880   25.8340   38.0970 N.3   291  ARG291     -0.1245
    118  CA        37.2220   25.9210   39.5490 C.3   291  ARG291      0.1563
    119  C         37.7940   24.7110   40.2790 C.2   291  ARG291      0.2260
    120  O         37.5770   24.5460   41.4790 O.2   291  ARG291     -0.2867
    121  CB        35.7700   26.1720   39.9720 C.3   291  ARG291      0.0307
    122  CG        35.1870   27.4190   39.3160 C.3   291  ARG291      0.0489
    123  CD        33.6980   27.6180   39.5690 C.3   291  ARG291      0.2205
    124  NE        33.1840   28.6890   38.7130 N.pl3 291  ARG291     -0.0865
    125  CZ        31.9240   29.1210   38.6910 C.cat 291  ARG291      0.5346
    126  NH1       31.0070   28.5820   39.4880 N.pl3 291  ARG291      0.1354
    127  NH2       31.5810   30.0970   37.8540 N.pl3 291  ARG291      0.1354
    128  N         31.1860   22.1020   29.4070 N.3   316  MET316     -0.1245
    129  CA        30.4600   23.3670   29.2640 C.3   316  MET316      0.1570
    130  C         31.5610   24.4050   29.5210 C.2   316  MET316      0.2261
    131  O         31.7540   24.8510   30.6510 O.2   316  MET316     -0.2867
    132  CB        29.3600   23.4630   30.3330 C.3   316  MET316      0.0387
    133  CG        28.3790   24.6300   30.1650 C.3   316  MET316      0.0595
    134  SD        27.1900   24.7690   31.5550 S.3   316  MET316     -0.1393
    135  CE        26.2430   23.2640   31.3090 C.3   316  MET316      0.0692
    136  N         15.5160   31.9160   38.6770 N.3   430  TRP430     -0.1241
    137  CA        15.4210   31.1610   37.4200 C.3   430  TRP430      0.1605
    138  C         14.1240   31.4670   36.6800 C.2   430  TRP430      0.2264
    139  O         13.4220   30.5500   36.2450 O.2   430  TRP430     -0.2867
    140  CB        15.4940   29.6460   37.6700 C.3   430  TRP430      0.0550
    141  CG        16.8560   29.1170   38.0470 C.ar  430  TRP430      0.0003
    142  CD1       17.2240   28.5810   39.2490 C.ar  430  TRP430      0.0946
    143  CD2       18.0200   29.0610   37.2110 C.ar  430  TRP430      0.0152
    144  NE1       18.5410   28.1930   39.2140 N.ar  430  TRP430     -0.2442
    145  CE2       19.0560   28.4760   37.9760 C.ar  430  TRP430      0.0810
    146  CE3       18.2900   29.4500   35.8890 C.ar  430  TRP430      0.0012
    147  CZ2       20.3420   28.2690   37.4640 C.ar  430  TRP430      0.0191
    148  CZ3       19.5710   29.2440   35.3800 C.ar  430  TRP430      0.0001
    149  CH2       20.5810   28.6570   36.1700 C.ar  430  TRP430      0.0015
    150  N         18.3950   35.2210   35.1750 N.3   434  TRP434     -0.1241
    151  CA        19.0660   34.2030   35.9780 C.3   434  TRP434      0.1605
    152  C         18.6590   34.2820   37.4520 C.2   434  TRP434      0.2264
    153  O         18.2370   33.2840   38.0470 O.2   434  TRP434     -0.2867
    154  CB        20.5860   34.3630   35.8550 C.3   434  TRP434      0.0550
    155  CG        21.3730   33.4030   36.7020 C.ar  434  TRP434      0.0003
    156  CD1       21.1540   32.0600   36.8380 C.ar  434  TRP434      0.0946
    157  CD2       22.5280   33.7040   37.4960 C.ar  434  TRP434      0.0152
    158  NE1       22.1020   31.5080   37.6640 N.ar  434  TRP434     -0.2442
    159  CE2       22.9590   32.4920   38.0820 C.ar  434  TRP434      0.0810
    160  CE3       23.2440   34.8800   37.7670 C.ar  434  TRP434      0.0012
    161  CZ2       24.0770   32.4190   38.9280 C.ar  434  TRP434      0.0191
    162  CZ3       24.3590   34.8090   38.6110 C.ar  434  TRP434      0.0001
    163  CH2       24.7620   33.5820   39.1790 C.ar  434  TRP434      0.0015
    164  N         21.4460   30.4810   43.2820 N.3   491  GLU491     -0.1245
    165  CA        22.7780   30.0420   43.6860 C.3   491  GLU491      0.1567
    166  C         23.3740   30.8030   44.8760 C.2   491  GLU491      0.2260
    167  O         22.6790   31.0670   45.8590 O.2   491  GLU491     -0.2867
    168  CB        23.7220   30.0880   42.4740 C.3   491  GLU491      0.0388
    169  CG        23.2980   29.0950   41.3910 C.3   491  GLU491      0.1160
    170  CD        24.1460   29.1550   40.1270 C.2   491  GLU491      0.3649
    171  OE1       25.3630   28.8690   40.1920 O.co2 491  GLU491     -0.2457
    172  OE2       23.5800   29.4840   39.0600 O.co2 491  GLU491     -0.2457
@<TRIPOS>BOND
     1     1     2    1
     2     4     3    2
     3     2     3    1
     4     2     5    1
     5     5     6    1
     6     8     6    1
     7     6     7    1
     8     9    10    1
     9   129   128    1
    10   129   130    1
    11   129   132    1
    12    35    34   ar
    13    35    33   ar
    14   130   131    2
    15    34    32   ar
    16    33    31   ar
    17    12    11    2
    18   133   132    1
    19   133   134    1
    20    10    11    1
    21   116   115   ar
    22   116   114   ar
    23   115   113   ar
    24    17    18    1
    25    11    13   am
    26    32    30   ar
    27    31    30   ar
    28   135   134    1
    29    25    26    1
    30   114   112   ar
    31    30    29    1
    32   113   110   ar
    33    16    15    2
    34    15    14    1
    35    13    14    1
    36    18    19    1
    37    18    21    1
    38    19    20    2
    39   112   110   ar
    40   112   111   ar
    41    26    29    1
    42    26    27    1
    43   110   108   ar
    44    23    22   ar
    45    21    22    1
    46   111   109   ar
    47    22    24   ar
    48   108   109   ar
    49   108   107    1
    50    27    28    2
    51    82    81    1
    52    98    97    2
    53   104   107    1
    54   104   105    1
    55   104   103    1
    56    97   103   am
    57    97    96    1
    58   105   106    2
    59    95    96    1
    60    96    99    1
    61    75    76    1
    62   150   151    1
    63    79    76    1
    64    79    80    1
    65    76    77    1
    66    80    81    1
    67   148   146   ar
    68   148   149   ar
    69   154   151    1
    70   154   155    1
    71   146   143   ar
    72   151   152    1
    73   149   147   ar
    74   101   100   ar
    75   139   138    2
    76    55    54    1
    77    77    78    2
    78    99   100    1
    79   138   137    1
    80   155   156   ar
    81   155   157   ar
    82   156   158   ar
    83   100   102   ar
    84    53    54    1
    85    53    52    1
    86   143   145   ar
    87   143   141   ar
    88    94    93    1
    89   137   140    1
    90   137   136    1
    91   152   153    2
    92   147   145   ar
    93   157   160   ar
    94   157   159   ar
    95   158   159   ar
    96   140   141    1
    97   160   162   ar
    98   127   125    1
    99    51    52    1
   100    51    48    1
   101   145   144   ar
   102   141   142   ar
   103   159   161   ar
   104   117   118    1
   105    47    48    1
   106    93    92   ar
   107    93    91   ar
   108    92    90   ar
   109   162   163   ar
   110    48    49    1
   111   125   124    2
   112   125   126    1
   113   124   123    1
   114   161   163   ar
   115   172   170   ar
   116   144   142   ar
   117    63    65   ar
   118    63    61   ar
   119   122   123    1
   120   122   121    1
   121    65    64   ar
   122    91    89   ar
   123    90    88   ar
   124   118   121    1
   125   118   119    1
   126    46    44    1
   127   170   171   ar
   128   170   169    1
   129    49    50    2
   130    49    56   am
   131   119   120    2
   132    61    60    1
   133    61    62   ar
   134    57    60    1
   135    57    56    1
   136    57    58    1
   137    64    62   ar
   138    89    88   ar
   139    88    87    1
   140    45    44    1
   141    44    43    2
   142    58    59    2
   143   169   168    1
   144    83    84    1
   145    84    87    1
   146    84    85    1
   147    43    42    1
   148   168   165    1
   149    74    72   ar
   150    73    72   ar
   151    72    71    1
   152    85    86    2
   153   164   165    1
   154    42    41    1
   155   165   166    1
   156    71    70    1
   157    41    40    1
   158   166   167    2
   159    70    67    1
   160    40    37    1
   161    67    66    1
   162    67    68    1
   163    39    38    2
   164    37    38    1
   165    37    36    1
   166    69    68    2
