@<TRIPOS>MOLECULE
tmp/1if2A00.pdb
 98 92 0 0 0
SMALL
GASTEIGER

@<TRIPOS>ATOM
      1  N          9.0610    4.0300   12.7670 N.3    10  ASN10      -0.1240
      2  CA         8.1520    3.3610   11.8440 C.3    10  ASN10       0.1653
      3  C          6.7470    3.5350   12.4500 C.2    10  ASN10       0.2266
      4  O          6.3730    2.8980   13.4410 O.2    10  ASN10      -0.2867
      5  CB         8.4860    1.8740   11.7230 C.3    10  ASN10       0.1155
      6  CG         7.5020    1.0880   10.8680 C.2    10  ASN10       0.2627
      7  OD1        6.6530    1.6670   10.2000 O.2    10  ASN10      -0.2716
      8  ND2        7.6710   -0.2350   10.8250 N.am   10  ASN10      -0.0877
      9  N          4.0530    2.5950   11.1440 N.3    12  LYS12      -0.1245
     10  CA         3.1540    1.4940   10.7410 C.3    12  LYS12       0.1561
     11  C          1.8670    2.0420   10.1560 C.2    12  LYS12       0.2260
     12  O          1.9590    3.0000    9.3600 O.2    12  LYS12      -0.2867
     13  CB         2.9620    0.5510   11.9450 C.3    12  LYS12       0.0271
     14  CG         4.3290    0.0440   12.4430 C.3    12  LYS12       0.0035
     15  CD         4.1760   -1.2080   13.3230 C.3    12  LYS12       0.0206
     16  CE         5.6130   -1.7130   13.6180 C.3    12  LYS12       0.1093
     17  NZ         5.5790   -2.9270   14.5270 N.3    12  LYS12      -0.1314
     18  N          9.8190   -5.9990    6.4730 N.3    94  HIS94      -0.1241
     19  CA         9.3800   -5.9440    7.8750 C.3    94  HIS94       0.1621
     20  C          8.6810   -7.2700    8.1780 C.2    94  HIS94       0.2264
     21  O          7.9910   -7.8570    7.3360 O.2    94  HIS94      -0.2867
     22  CB         8.4430   -4.7540    8.1140 C.3    94  HIS94       0.0745
     23  CG         8.2550   -4.4960    9.5840 C.ar   94  HIS94       0.0817
     24  ND1        7.2850   -5.1650   10.2970 N.ar   94  HIS94      -0.2268
     25  CD2        8.9200   -3.6840   10.4290 C.ar   94  HIS94       0.1154
     26  CE1        7.3390   -4.7420   11.5590 C.ar   94  HIS94       0.1986
     27  NE2        8.3100   -3.8260   11.6630 N.ar   94  HIS94      -0.2212
     28  N         15.1730   -7.4550   14.3260 N.3   166  GLU166     -0.1245
     29  CA        14.0510   -7.3370   15.2380 C.3   166  GLU166      0.1567
     30  C         13.5210   -8.7410   15.5170 C.2   166  GLU166      0.2260
     31  O         12.8000   -9.2180   14.6470 O.2   166  GLU166     -0.2867
     32  CB        12.8790   -6.5770   14.5880 C.3   166  GLU166      0.0388
     33  CG        13.2070   -5.1910   14.0750 C.3   166  GLU166      0.1160
     34  CD        11.9160   -4.3700   13.9790 C.2   166  GLU166      0.3649
     35  OE1       10.9730   -4.7640   13.2740 O.co2 166  GLU166     -0.2457
     36  OE2       11.8210   -3.3190   14.6290 O.co2 166  GLU166     -0.2457
     37  N          9.7940   -9.7900   20.1200 N.3   170  ALA170     -0.1231
     38  CA         9.9360   -8.5020   20.7910 C.3   170  ALA170      0.1694
     39  C          9.1000   -7.4370   20.0970 C.2   170  ALA170      0.2592
     40  O          9.0730   -6.3000   20.5530 O.2   170  ALA170     -0.2718
     41  CB        11.3980   -8.0630   20.8040 C.3   170  ALA170      0.0304
     42  N          8.4580   -7.7540   18.9670 N.am  171  ILE171     -0.1966
     43  CA         7.7620   -6.6720   18.2470 C.3   171  ILE171      0.1727
     44  C          6.3960   -6.3810   18.8390 C.2   171  ILE171      0.2616
     45  O          5.4990   -7.2330   18.7750 O.2   171  ILE171     -0.2715
     46  CB         7.5950   -7.0300   16.7480 C.3   171  ILE171      0.0290
     47  CG1        8.9900   -7.1680   16.1290 C.3   171  ILE171      0.0022
     48  CG2        6.7670   -5.8980   16.1020 C.3   171  ILE171      0.0023
     49  CD1        8.9610   -7.6430   14.6700 C.3   171  ILE171      0.0001
     50  N          6.2170   -5.1990   19.4310 N.am  172  GLY172     -0.1955
     51  CA         4.9820   -4.7650   20.0090 C.3   172  GLY172      0.1869
     52  C          4.5320   -5.5650   21.2310 C.2   172  GLY172      0.2309
     53  O          3.3950   -5.3550   21.6670 O.2   172  GLY172     -0.2863
     54  N         12.2610   -3.6960   18.4270 N.3   211  GLY211     -0.1210
     55  CA        11.3800   -4.5980   19.1380 C.3   211  GLY211      0.1956
     56  C         11.2440   -4.1260   20.5850 C.2   211  GLY211      0.2613
     57  O         12.1460   -4.3730   21.3730 O.2   211  GLY211     -0.2717
     58  N         10.1880   -3.3360   20.8410 N.am  212  SER212     -0.1938
     59  CA         9.8940   -2.8440   22.1750 C.3   212  SER212      0.2055
     60  C         10.9550   -1.8950   22.7150 C.2   212  SER212      0.2642
     61  O         11.1210   -1.7950   23.9330 O.2   212  SER212     -0.2714
     62  CB         9.7010   -4.0320   23.1520 C.3   212  SER212      0.2130
     63  OG         8.5360   -4.7690   22.7430 O.3   212  SER212     -0.2179
     64  N         11.6420   -1.1590   21.8450 N.am  213  VAL213     -0.1977
     65  CA        12.5670   -0.1300   22.3040 C.3   213  VAL213      0.1596
     66  C         11.7450    0.9950   22.9500 C.2   213  VAL213      0.2287
     67  O         10.7420    1.3810   22.3570 O.2   213  VAL213     -0.2864
     68  CB        13.3400    0.4860   21.1150 C.3   213  VAL213      0.0276
     69  CG1       14.2610    1.6160   21.5540 C.3   213  VAL213      0.0022
     70  CG2       14.1810   -0.6260   20.4620 C.3   213  VAL213      0.0022
     71  N         15.1390    0.7590   15.3320 N.3   231  LEU231     -0.1231
     72  CA        13.8990    0.8750   14.5560 C.3   231  LEU231      0.1693
     73  C         12.7920    0.8140   15.6120 C.2   231  LEU231      0.2592
     74  O         12.6870   -0.1620   16.3520 O.2   231  LEU231     -0.2718
     75  CB        13.7700   -0.3220   13.6180 C.3   231  LEU231      0.0284
     76  CG        12.5600   -0.3020   12.6790 C.3   231  LEU231      0.0019
     77  CD1       12.4620    1.0090   11.9130 C.3   231  LEU231      0.0001
     78  CD2       12.7390   -1.4770   11.6970 C.3   231  LEU231      0.0001
     79  N         12.0110    1.8690   15.7280 N.am  232  VAL232     -0.1966
     80  CA        11.0410    2.0110   16.7980 C.3   232  VAL232      0.1727
     81  C          9.6150    2.0990   16.3130 C.2   232  VAL232      0.2617
     82  O          9.3560    2.8890   15.4190 O.2   232  VAL232     -0.2715
     83  CB        11.3880    3.3470   17.5220 C.3   232  VAL232      0.0290
     84  CG1       10.5040    3.5610   18.7530 C.3   232  VAL232      0.0023
     85  CG2       12.8660    3.4200   17.8930 C.3   232  VAL232      0.0023
     86  N          8.7480    1.2870   16.9190 N.am  233  GLY233     -0.1940
     87  CA         7.3580    1.2670   16.5000 C.3   233  GLY233      0.2014
     88  C          6.5130    2.1220   17.4250 C.2   233  GLY233      0.2639
     89  O          6.5180    3.3490   17.2880 O.2   233  GLY233     -0.2714
     90  N          5.9080    1.4810   18.4280 N.am  234  GLY234     -0.1939
     91  CA         5.0290    2.1970   19.3420 C.3   234  GLY234      0.2014
     92  C          5.5700    3.4150   20.0460 C.2   234  GLY234      0.2638
     93  O          4.8520    4.4310   20.1490 O.2   234  GLY234     -0.2714
     94  N          6.8500    3.4550   20.4290 N.am  235  ALA235     -0.1977
     95  CA         7.3940    4.6120   21.1240 C.3   235  ALA235      0.1597
     96  C          7.6920    5.7630   20.1910 C.2   235  ALA235      0.2287
     97  O          7.8770    6.8810   20.6650 O.2   235  ALA235     -0.2864
     98  CB         8.6630    4.2800   21.9460 C.3   235  ALA235      0.0319
@<TRIPOS>BOND
     1    18    19    1
     2    21    20    2
     3    19    22    1
     4    19    20    1
     5    22    23    1
     6    12    11    2
     7    23    24   ar
     8    23    25   ar
     9    11    10    1
    10     7     6    2
    11    24    26   ar
    12    25    27   ar
    13    10     9    1
    14    10    13    1
    15     8     6   am
    16     6     5    1
    17    26    27   ar
    18    78    76    1
    19     5     2    1
    20     2     3    1
    21     2     1    1
    22    77    76    1
    23    13    14    1
    24    14    15    1
    25     3     4    2
    26    76    75    1
    27    35    34   ar
    28    15    16    1
    29    75    72    1
    30    16    17    1
    31    34    33    1
    32    34    36   ar
    33    33    32    1
    34    28    29    1
    35    72    71    1
    36    72    73    1
    37    32    29    1
    38    31    30    2
    39    49    47    1
    40    29    30    1
    41    82    81    2
    42    73    79   am
    43    73    74    2
    44    79    80    1
    45    48    46    1
    46    47    46    1
    47    81    80    1
    48    81    86   am
    49    87    86    1
    50    87    88    1
    51    46    43    1
    52    80    83    1
    53    89    88    2
    54    88    90   am
    55    83    85    1
    56    83    84    1
    57    43    44    1
    58    43    42    1
    59    54    55    1
    60    90    91    1
    61    45    44    2
    62    44    50   am
    63    42    39   am
    64    55    56    1
    65    91    92    1
    66    50    51    1
    67    51    52    1
    68    92    93    2
    69    92    94   am
    70    39    40    2
    71    39    38    1
    72    37    38    1
    73    96    97    2
    74    96    95    1
    75    94    95    1
    76    70    68    1
    77    56    58   am
    78    56    57    2
    79    38    41    1
    80    58    59    1
    81    68    69    1
    82    68    65    1
    83    95    98    1
    84    52    53    2
    85    64    65    1
    86    64    60   am
    87    59    60    1
    88    59    62    1
    89    65    66    1
    90    67    66    2
    91    60    61    2
    92    63    62    1
