@<TRIPOS>MOLECULE
tmp/1if4A00.pdb
 114 113 0 0 0
SMALL
GASTEIGER

@<TRIPOS>ATOM
      1  N        -12.7880    5.1270   11.5810 N.3    90  GLN90      -0.1245
      2  CA       -12.5690    3.9530   10.7420 C.3    90  GLN90       0.1566
      3  C        -12.6280    2.6450   11.5190 C.2    90  GLN90       0.2260
      4  O        -12.6820    2.6450   12.7470 O.2    90  GLN90      -0.2867
      5  CB       -11.2150    4.0440   10.0180 C.3    90  GLN90       0.0367
      6  CG       -10.0060    4.1370   10.9340 C.3    90  GLN90       0.0905
      7  CD        -9.2360    2.8220   11.0950 C.2    90  GLN90       0.2608
      8  OE1       -9.8160    1.7320   11.2650 O.2    90  GLN90      -0.2717
      9  NE2       -7.9080    2.9260   11.0660 N.am   90  GLN90      -0.0878
     10  N        -11.2300   -1.7070   11.1970 N.3    92  HIS92      -0.1241
     11  CA       -10.3300   -2.6860   10.5840 C.3    92  HIS92       0.1621
     12  C        -10.4030   -3.9900   11.3660 C.2    92  HIS92       0.2264
     13  O        -11.0260   -4.0510   12.4310 O.2    92  HIS92      -0.2867
     14  CB        -8.8880   -2.1800   10.6010 C.3    92  HIS92       0.0745
     15  CG        -8.3690   -1.8710   11.9780 C.ar   92  HIS92       0.0817
     16  ND1       -8.5450   -0.6640   12.6180 N.ar   92  HIS92      -0.2268
     17  CD2       -7.6860   -2.6500   12.8550 C.ar   92  HIS92       0.1154
     18  CE1       -7.9870   -0.7370   13.8340 C.ar   92  HIS92       0.1986
     19  NE2       -7.4450   -1.9220   14.0380 N.ar   92  HIS92      -0.2212
     20  N         -8.1460   -7.7910   12.6050 N.3    94  HIS94      -0.1241
     21  CA        -6.8890   -8.4500   12.9320 C.3    94  HIS94       0.1621
     22  C         -7.3340   -9.9150   12.7940 C.2    94  HIS94       0.2264
     23  O         -8.4190  -10.2770   13.2570 O.2    94  HIS94      -0.2867
     24  CB        -6.4560   -8.1400   14.3770 C.3    94  HIS94       0.0745
     25  CG        -6.1230   -6.6940   14.6230 C.ar   94  HIS94       0.0817
     26  ND1       -4.8640   -6.1510   14.4760 N.ar   94  HIS94      -0.2268
     27  CD2       -6.9150   -5.6660   15.0300 C.ar   94  HIS94       0.1154
     28  CE1       -4.9280   -4.8350   14.7960 C.ar   94  HIS94       0.1986
     29  NE2       -6.1530   -4.4730   15.1440 N.ar   94  HIS94      -0.2212
     30  N        -12.1500   -3.8380   15.0650 N.3   117  HIS117     -0.1241
     31  CA       -11.8670   -2.6390   15.8320 C.3   117  HIS117      0.1621
     32  C        -12.5470   -1.4170   15.2120 C.2   117  HIS117      0.2264
     33  O        -12.2770   -1.0760   14.0590 O.2   117  HIS117     -0.2867
     34  CB       -10.3460   -2.3720   15.8990 C.3   117  HIS117      0.0745
     35  CG        -9.5890   -3.3140   16.7890 C.ar  117  HIS117      0.0817
     36  ND1       -8.2130   -3.4710   16.6870 N.ar  117  HIS117     -0.2268
     37  CD2      -10.0590   -4.1180   17.7750 C.ar  117  HIS117      0.1154
     38  CE1       -7.8920   -4.3630   17.6060 C.ar  117  HIS117      0.1986
     39  NE2       -8.9730   -4.7810   18.2870 N.ar  117  HIS117     -0.2212
     40  N        -12.7110    2.3230   15.5760 N.3   119  VAL119     -0.1245
     41  CA       -11.9570    3.4190   16.1590 C.3   119  VAL119      0.1561
     42  C        -12.6880    4.7600   16.1840 C.2   119  VAL119      0.2260
     43  O        -13.2050    5.2130   15.1510 O.2   119  VAL119     -0.2867
     44  CB       -10.6220    3.5540   15.3950 C.3   119  VAL119      0.0252
     45  CG1       -9.7360    4.6260   16.0140 C.3   119  VAL119      0.0019
     46  CG2       -9.9360    2.2100   15.3310 C.3   119  VAL119      0.0019
     47  N         -8.3230   14.0840   14.9900 N.3   128  PHE128     -0.1241
     48  CA        -7.6800   12.8240   15.3630 C.3   128  PHE128      0.1605
     49  C         -6.2520   12.9730   15.8870 C.2   128  PHE128      0.2264
     50  O         -5.8320   12.2780   16.8160 O.2   128  PHE128     -0.2867
     51  CB        -7.7200   11.8550   14.1670 C.3   128  PHE128      0.0534
     52  CG        -7.1870   10.4930   14.4780 C.ar  128  PHE128     -0.0203
     53  CD1       -8.0200    9.5220   15.0080 C.ar  128  PHE128     -0.0042
     54  CD2       -5.8410   10.1920   14.2870 C.ar  128  PHE128     -0.0042
     55  CE1       -7.5200    8.2690   15.3530 C.ar  128  PHE128     -0.0003
     56  CE2       -5.3330    8.9470   14.6280 C.ar  128  PHE128     -0.0003
     57  CZ        -6.1750    7.9840   15.1660 C.ar  128  PHE128     -0.0000
     58  N        -11.9160    2.6160   21.3500 N.3   140  VAL140     -0.1245
     59  CA       -12.0000    1.5850   20.3270 C.3   140  VAL140      0.1561
     60  C        -12.9730    0.5080   20.8020 C.2   140  VAL140      0.2260
     61  O        -12.8380   -0.0020   21.9130 O.2   140  VAL140     -0.2867
     62  CB       -10.6220    0.9360   20.0360 C.3   140  VAL140      0.0252
     63  CG1      -10.7350   -0.0590   18.8610 C.3   140  VAL140      0.0019
     64  CG2       -9.5830    2.0030   19.7760 C.3   140  VAL140      0.0019
     65  N         -2.8060    1.7410   21.6720 N.3   195  LEU195     -0.1231
     66  CA        -2.9290    1.2810   20.2870 C.3   195  LEU195      0.1693
     67  C         -2.1850   -0.0620   20.2820 C.2   195  LEU195      0.2593
     68  O         -1.2200   -0.2370   21.0410 O.2   195  LEU195     -0.2718
     69  CB        -2.2220    2.2530   19.3480 C.3   195  LEU195      0.0284
     70  CG        -2.8420    3.6420   19.2880 C.3   195  LEU195      0.0019
     71  CD1       -1.9220    4.5710   18.5270 C.3   195  LEU195      0.0001
     72  CD2       -4.2270    3.5770   18.6350 C.3   195  LEU195      0.0001
     73  N         -2.6210   -1.0110   19.4610 N.am  196  THR196     -0.1939
     74  CA        -1.9680   -2.3060   19.4220 C.3   196  THR196      0.2028
     75  C         -0.9180   -2.4230   18.3200 C.2   196  THR196      0.2643
     76  O         -0.3390   -3.5020   18.1100 O.2   196  THR196     -0.2714
     77  CB        -2.9880   -3.4470   19.3160 C.3   196  THR196      0.1808
     78  OG1       -3.6660   -3.3720   18.0590 O.3   196  THR196     -0.2208
     79  CG2       -4.0000   -3.3760   20.4670 C.3   196  THR196      0.0379
     80  N         -0.7310   -1.3370   17.5700 N.am  197  THR197     -0.1937
     81  CA         0.2830   -1.2800   16.5160 C.3   197  THR197      0.2013
     82  C          1.0780    0.0270   16.7550 C.2   197  THR197      0.2484
     83  O          0.5780    0.9600   17.4210 O.2   197  THR197     -0.2729
     84  CB        -0.3710   -1.2640   15.0810 C.3   197  THR197      0.1807
     85  OG1       -0.9020    0.0340   14.8000 O.3   197  THR197     -0.2208
     86  CG2       -1.5260   -2.2760   14.9810 C.3   197  THR197      0.0379
     87  N          2.3400    0.0960   16.2930 N.am  198  PRO198     -0.2715
     88  CA         3.1020    1.3350   16.4960 C.3   198  PRO198      0.1521
     89  C          2.2500    2.4930   15.9730 C.2   198  PRO198      0.2440
     90  O          1.5280    2.3290   14.9790 O.2   198  PRO198     -0.2731
     91  CB         4.3260    1.1250   15.5980 C.3   198  PRO198      0.0310
     92  CG         4.5700   -0.3180   15.7150 C.3   198  PRO198      0.0237
     93  CD         3.1630   -0.9120   15.6050 C.3   198  PRO198      0.0939
     94  N          2.3960    3.6960   16.5500 N.am  199  PRO199     -0.2727
     95  CA         3.2700    4.1430   17.6430 C.3   199  PRO199      0.1402
     96  C          2.9600    3.6970   19.0970 C.2   199  PRO199      0.2269
     97  O          3.6030    4.1760   20.0390 O.2   199  PRO199     -0.2865
     98  CB         3.2460    5.6670   17.4810 C.3   199  PRO199      0.0296
     99  CG         1.8740    5.9260   16.9700 C.3   199  PRO199      0.0237
    100  CD         1.6680    4.8370   15.9600 C.3   199  PRO199      0.0939
    101  N        -10.4600    1.0510   26.0680 N.3   206  TRP206     -0.1241
    102  CA       -10.9070   -0.1170   25.3510 C.3   206  TRP206      0.1605
    103  C        -12.2710   -0.5730   25.8540 C.2   206  TRP206      0.2264
    104  O        -12.5300   -0.5640   27.0640 O.2   206  TRP206     -0.2867
    105  CB        -9.8830   -1.2380   25.5260 C.3   206  TRP206      0.0550
    106  CG        -8.7270   -1.1120   24.6050 C.ar  206  TRP206      0.0003
    107  CD1       -7.4900   -0.5840   24.8810 C.ar  206  TRP206      0.0946
    108  CD2       -8.6850   -1.5490   23.2410 C.ar  206  TRP206      0.0152
    109  NE1       -6.6880   -0.6690   23.7710 N.ar  206  TRP206     -0.2442
    110  CE2       -7.3940   -1.2570   22.7510 C.ar  206  TRP206      0.0810
    111  CE3       -9.6190   -2.1650   22.3860 C.ar  206  TRP206      0.0012
    112  CZ2       -7.0100   -1.5590   21.4460 C.ar  206  TRP206      0.0191
    113  CZ3       -9.2330   -2.4660   21.0790 C.ar  206  TRP206      0.0001
    114  CH2       -7.9430   -2.1620   20.6260 C.ar  206  TRP206      0.0015
@<TRIPOS>BOND
     1     5     2    1
     2     5     6    1
     3    11    14    1
     4    11    10    1
     5    11    12    1
     6    14    15    1
     7     2     3    1
     8     2     1    1
     9     6     7    1
    10     9     7   am
    11     7     8    2
    12    12    13    2
    13     3     4    2
    14    15    16   ar
    15    15    17   ar
    16    20    21    1
    17    16    18   ar
    18    22    21    1
    19    22    23    2
    20    17    19   ar
    21    21    24    1
    22    18    19   ar
    23    33    32    2
    24    51    52    1
    25    51    48    1
    26    54    52   ar
    27    54    56   ar
    28    24    25    1
    29    26    25   ar
    30    26    28   ar
    31    52    53   ar
    32    25    27   ar
    33    56    57   ar
    34    28    29   ar
    35    85    84    1
    36    90    89    2
    37    86    84    1
    38    47    48    1
    39    53    55   ar
    40    27    29   ar
    41    30    31    1
    42    84    81    1
    43    43    42    2
    44    57    55   ar
    45    32    31    1
    46    46    44    1
    47    48    49    1
    48    44    45    1
    49    44    41    1
    50    40    41    1
    51    91    92    1
    52    91    88    1
    53    93    92    1
    54    93    87    1
    55    31    34    1
    56    49    50    2
    57    34    35    1
    58   100    94    1
    59   100    99    1
    60    89    88    1
    61    89    94   am
    62    41    42    1
    63    87    88    1
    64    87    82   am
    65    81    82    1
    66    81    80    1
    67    94    95    1
    68    36    35   ar
    69    36    38   ar
    70    82    83    2
    71    35    37   ar
    72    99    98    1
    73    98    95    1
    74    80    75   am
    75    38    39   ar
    76    95    96    1
    77    37    39   ar
    78    78    77    1
    79    76    75    2
    80    75    74    1
    81    71    70    1
    82    72    70    1
    83    63    62    1
    84    96    97    2
    85    70    69    1
    86    77    74    1
    87    77    79    1
    88    69    66    1
    89    74    73    1
    90    73    67   am
    91    64    62    1
    92    62    59    1
    93    67    66    1
    94    67    68    2
    95    66    65    1
    96    59    60    1
    97    59    58    1
    98   114   113   ar
    99   114   112   ar
   100    60    61    2
   101   113   111   ar
   102   112   110   ar
   103   111   108   ar
   104   110   108   ar
   105   110   109   ar
   106   108   106   ar
   107   109   107   ar
   108   106   107   ar
   109   106   105    1
   110   102   105    1
   111   102   103    1
   112   102   101    1
   113   103   104    2
