@<TRIPOS>MOLECULE
tmp/1if6A00.pdb
 143 141 0 0 0
SMALL
GASTEIGER

@<TRIPOS>ATOM
      1  N          8.1270   -0.5000   10.5970 N.3     3  TRP3       -0.1241
      2  CA         7.5620   -1.6000   11.3840 C.3     3  TRP3        0.1605
      3  C          6.6510   -2.5570   10.6170 C.2     3  TRP3        0.2264
      4  O          6.0430   -2.1890    9.6010 O.2     3  TRP3       -0.2867
      5  CB         6.8100   -1.0380   12.5970 C.3     3  TRP3        0.0550
      6  CG         5.5470   -0.2780   12.2410 C.ar    3  TRP3        0.0003
      7  CD1        5.4390    1.0570   11.9490 C.ar    3  TRP3        0.0946
      8  CD2        4.2110   -0.8110   12.1800 C.ar    3  TRP3        0.0152
      9  NE1        4.1230    1.3870   11.7190 N.ar    3  TRP3       -0.2442
     10  CE2        3.3470    0.2620   11.8550 C.ar    3  TRP3        0.0810
     11  CE3        3.6620   -2.0880   12.3770 C.ar    3  TRP3        0.0012
     12  CZ2        1.9620    0.0960   11.7270 C.ar    3  TRP3        0.0191
     13  CZ3        2.2820   -2.2510   12.2470 C.ar    3  TRP3        0.0001
     14  CH2        1.4510   -1.1610   11.9250 C.ar    3  TRP3        0.0015
     15  N        -12.8000    5.9160   11.5130 N.3    90  GLN90      -0.1245
     16  CA       -12.5160    4.7360   10.6910 C.3    90  GLN90       0.1566
     17  C        -12.6840    3.4520   11.4590 C.2    90  GLN90       0.2260
     18  O        -12.8060    3.4860   12.6760 O.2    90  GLN90      -0.2867
     19  CB       -11.0810    4.7670   10.1400 C.3    90  GLN90       0.0367
     20  CG        -9.9710    4.7900   11.2090 C.3    90  GLN90       0.0905
     21  CD        -9.2020    3.4760   11.3310 C.2    90  GLN90       0.2608
     22  OE1       -9.7860    2.4040   11.3980 O.2    90  GLN90      -0.2717
     23  NE2       -7.8850    3.5650   11.3930 N.am   90  GLN90      -0.0878
     24  N        -11.2840   -0.8600   11.2170 N.3    92  HIS92      -0.1241
     25  CA       -10.3760   -1.8190   10.5970 C.3    92  HIS92       0.1621
     26  C        -10.4690   -3.1140   11.3700 C.2    92  HIS92       0.2264
     27  O        -11.1300   -3.1710   12.4120 O.2    92  HIS92      -0.2867
     28  CB        -8.9220   -1.3100   10.6330 C.3    92  HIS92       0.0745
     29  CG        -8.4050   -1.0360   12.0170 C.ar   92  HIS92       0.0817
     30  ND1       -8.4250    0.2030   12.6180 N.ar   92  HIS92      -0.2268
     31  CD2       -7.8660   -1.8780   12.9330 C.ar   92  HIS92       0.1154
     32  CE1       -7.9170    0.0860   13.8500 C.ar   92  HIS92       0.1986
     33  NE2       -7.5510   -1.1580   14.1090 N.ar   92  HIS92      -0.2212
     34  N         -8.2430   -6.8880   12.6080 N.3    94  HIS94      -0.1241
     35  CA        -6.9790   -7.5320   12.9390 C.3    94  HIS94       0.1621
     36  C         -7.4320   -9.0230   12.7780 C.2    94  HIS94       0.2264
     37  O         -8.5600   -9.3830   13.1760 O.2    94  HIS94      -0.2867
     38  CB        -6.5340   -7.1650   14.4000 C.3    94  HIS94       0.0745
     39  CG        -6.2610   -5.6820   14.6290 C.ar   94  HIS94       0.0817
     40  ND1       -5.0460   -5.0700   14.4250 N.ar   94  HIS94      -0.2268
     41  CD2       -7.0750   -4.6920   15.0850 C.ar   94  HIS94       0.1154
     42  CE1       -5.1570   -3.7600   14.7570 C.ar   94  HIS94       0.1986
     43  NE2       -6.3770   -3.4310   15.1800 N.ar   94  HIS94      -0.2212
     44  N        -12.1620   -2.9810   15.1160 N.3   117  HIS117     -0.1241
     45  CA       -11.8930   -1.7870   15.9130 C.3   117  HIS117      0.1621
     46  C        -12.5600   -0.5750   15.2540 C.2   117  HIS117      0.2264
     47  O        -12.2100   -0.2080   14.1170 O.2   117  HIS117     -0.2867
     48  CB       -10.3700   -1.5020   16.0260 C.3   117  HIS117      0.0745
     49  CG        -9.6110   -2.4980   16.8610 C.ar  117  HIS117      0.0817
     50  ND1       -8.2280   -2.5160   16.8950 N.ar  117  HIS117     -0.2268
     51  CD2      -10.0850   -3.4720   17.6730 C.ar  117  HIS117      0.1154
     52  CE1       -7.9120   -3.4950   17.7260 C.ar  117  HIS117      0.1986
     53  NE2       -8.9910   -4.0940   18.2110 N.ar  117  HIS117     -0.2212
     54  N        -12.7850    3.1340   15.5030 N.3   119  VAL119     -0.1245
     55  CA       -12.0210    4.2060   16.1080 C.3   119  VAL119      0.1561
     56  C        -12.7660    5.5380   16.1740 C.2   119  VAL119      0.2260
     57  O        -13.3110    5.9950   15.1530 O.2   119  VAL119     -0.2867
     58  CB       -10.6390    4.3560   15.3720 C.3   119  VAL119      0.0252
     59  CG1       -9.7360    5.3670   16.1100 C.3   119  VAL119      0.0019
     60  CG2       -9.9700    2.9930   15.2440 C.3   119  VAL119      0.0019
     61  N         -8.2970   14.8690   14.9660 N.3   128  PHE128     -0.1241
     62  CA        -7.6710   13.6220   15.3930 C.3   128  PHE128      0.1605
     63  C         -6.2620   13.8360   15.8890 C.2   128  PHE128      0.2264
     64  O         -5.8750   13.3010   16.9330 O.2   128  PHE128     -0.2867
     65  CB        -7.6710   12.6030   14.2570 C.3   128  PHE128      0.0534
     66  CG        -7.1760   11.2450   14.6580 C.ar  128  PHE128     -0.0203
     67  CD1       -8.0560   10.2950   15.1560 C.ar  128  PHE128     -0.0042
     68  CD2       -5.8330   10.9030   14.5020 C.ar  128  PHE128     -0.0042
     69  CE1       -7.6080    9.0170   15.4900 C.ar  128  PHE128     -0.0003
     70  CE2       -5.3730    9.6300   14.8320 C.ar  128  PHE128     -0.0003
     71  CZ        -6.2540    8.6860   15.3250 C.ar  128  PHE128     -0.0000
     72  N         -8.8810    9.1640   22.6550 N.3   138  LEU138     -0.1245
     73  CA        -9.5320    8.1820   21.7930 C.3   138  LEU138      0.1561
     74  C        -10.3650    7.1350   22.5050 C.2   138  LEU138      0.2260
     75  O        -10.0920    6.7840   23.6570 O.2   138  LEU138     -0.2867
     76  CB        -8.4870    7.4480   20.9460 C.3   138  LEU138      0.0270
     77  CG        -7.5610    8.2710   20.0690 C.3   138  LEU138      0.0019
     78  CD1       -6.7260    7.3110   19.2510 C.3   138  LEU138      0.0001
     79  CD2       -8.3470    9.1890   19.1490 C.3   138  LEU138      0.0001
     80  N        -11.9140    3.3070   21.3710 N.3   140  VAL140     -0.1245
     81  CA       -12.0640    2.2920   20.3360 C.3   140  VAL140      0.1561
     82  C        -13.0420    1.2190   20.8210 C.2   140  VAL140      0.2260
     83  O        -12.9420    0.7610   21.9630 O.2   140  VAL140     -0.2867
     84  CB       -10.7130    1.6230   19.9550 C.3   140  VAL140      0.0252
     85  CG1      -10.9120    0.5800   18.8460 C.3   140  VAL140      0.0019
     86  CG2       -9.7100    2.6730   19.5110 C.3   140  VAL140      0.0019
     87  N         -2.7770    2.5060   21.6380 N.3   195  LEU195     -0.1231
     88  CA        -2.9670    2.0400   20.2640 C.3   195  LEU195      0.1693
     89  C         -2.2750    0.6720   20.2610 C.2   195  LEU195      0.2593
     90  O         -1.3530    0.4400   21.0570 O.2   195  LEU195     -0.2718
     91  CB        -2.2480    2.9720   19.2770 C.3   195  LEU195      0.0284
     92  CG        -2.6600    4.4530   19.3560 C.3   195  LEU195      0.0019
     93  CD1       -1.7930    5.2750   18.4350 C.3   195  LEU195      0.0001
     94  CD2       -4.1400    4.6110   19.0050 C.3   195  LEU195      0.0001
     95  N         -2.6980   -0.2450   19.3930 N.am  196  THR196     -0.1939
     96  CA        -2.0450   -1.5390   19.3880 C.3   196  THR196      0.2028
     97  C         -0.9600   -1.6180   18.3360 C.2   196  THR196      0.2643
     98  O         -0.3450   -2.6760   18.1470 O.2   196  THR196     -0.2714
     99  CB        -3.0260   -2.6740   19.1980 C.3   196  THR196      0.1808
    100  OG1       -3.7860   -2.4530   18.0060 O.3   196  THR196     -0.2208
    101  CG2       -3.9520   -2.7700   20.3780 C.3   196  THR196      0.0379
    102  N         -0.7580   -0.5190   17.6090 N.am  197  THR197     -0.1937
    103  CA         0.2790   -0.4800   16.5760 C.3   197  THR197      0.2013
    104  C          1.1260    0.7930   16.7840 C.2   197  THR197      0.2484
    105  O          0.7470    1.6730   17.5580 O.2   197  THR197     -0.2729
    106  CB        -0.3400   -0.4830   15.1470 C.3   197  THR197      0.1807
    107  OG1       -0.9990    0.7510   14.9330 O.3   197  THR197     -0.2208
    108  CG2       -1.3570   -1.6150   14.9640 C.3   197  THR197      0.0379
    109  N          2.3470    0.8390   16.2230 N.am  198  PRO198     -0.2715
    110  CA         3.1180    2.0640   16.4270 C.3   198  PRO198      0.1521
    111  C          2.2780    3.2340   15.9120 C.2   198  PRO198      0.2440
    112  O          1.5270    3.0750   14.9490 O.2   198  PRO198     -0.2731
    113  CB         4.3490    1.8130   15.5570 C.3   198  PRO198      0.0310
    114  CG         4.5920    0.3700   15.7900 C.3   198  PRO198      0.0237
    115  CD         3.1890   -0.2030   15.6190 C.3   198  PRO198      0.0939
    116  N          2.4440    4.4380   16.4850 N.am  199  PRO199     -0.2727
    117  CA         3.3200    4.9150   17.5630 C.3   199  PRO199      0.1402
    118  C          3.0650    4.4160   18.9970 C.2   199  PRO199      0.2269
    119  O          3.7420    4.8740   19.9240 O.2   199  PRO199     -0.2865
    120  CB         3.1550    6.4370   17.4820 C.3   199  PRO199      0.0296
    121  CG         2.7170    6.6760   16.0930 C.3   199  PRO199      0.0237
    122  CD         1.7330    5.5740   15.8850 C.3   199  PRO199      0.0939
    123  N         -5.9050    5.8930   24.7010 N.3   204  VAL204     -0.1245
    124  CA        -7.1640    5.1840   24.5170 C.3   204  VAL204      0.1561
    125  C         -7.9920    4.5730   25.6640 C.2   204  VAL204      0.2260
    126  O         -7.4540    3.9450   26.5910 O.2   204  VAL204     -0.2867
    127  CB        -6.9520    4.0680   23.4470 C.3   204  VAL204      0.0252
    128  CG1       -8.2920    3.3620   23.0790 C.3   204  VAL204      0.0019
    129  CG2       -6.2900    4.6680   22.2210 C.3   204  VAL204      0.0019
    130  N        -10.5380    1.8010   26.1450 N.3   206  TRP206     -0.1241
    131  CA       -11.0040    0.6300   25.4460 C.3   206  TRP206      0.1605
    132  C        -12.3440    0.1290   25.9370 C.2   206  TRP206      0.2264
    133  O        -12.5580   -0.0080   27.1470 O.2   206  TRP206     -0.2867
    134  CB        -9.9460   -0.4760   25.5250 C.3   206  TRP206      0.0550
    135  CG        -8.8440   -0.2990   24.5440 C.ar  206  TRP206      0.0003
    136  CD1       -7.6270    0.2910   24.7610 C.ar  206  TRP206      0.0946
    137  CD2       -8.8310   -0.7660   23.1840 C.ar  206  TRP206      0.0152
    138  NE1       -6.8470    0.2100   23.6140 N.ar  206  TRP206     -0.2442
    139  CE2       -7.5610   -0.4350   22.6360 C.ar  206  TRP206      0.0810
    140  CE3       -9.7650   -1.4400   22.3770 C.ar  206  TRP206      0.0012
    141  CZ2       -7.2020   -0.7610   21.3150 C.ar  206  TRP206      0.0191
    142  CZ3       -9.4090   -1.7660   21.0600 C.ar  206  TRP206      0.0001
    143  CH2       -8.1360   -1.4260   20.5450 C.ar  206  TRP206      0.0015
@<TRIPOS>BOND
     1     4     3    2
     2    19    16    1
     3    19    20    1
     4     1     2    1
     5    25    28    1
     6    25    24    1
     7    25    26    1
     8     3     2    1
     9    28    29    1
    10    16    17    1
    11    16    15    1
    12    20    21    1
    13    21    23   am
    14    21    22    2
    15    26    27    2
    16     2     5    1
    17    17    18    2
    18     9    10   ar
    19     9     7   ar
    20    12    10   ar
    21    12    14   ar
    22    10     8   ar
    23    14    13   ar
    24     7     6   ar
    25    29    30   ar
    26    29    31   ar
    27     8     6   ar
    28     8    11   ar
    29     6     5    1
    30    13    11   ar
    31    34    35    1
    32    30    32   ar
    33    36    35    1
    34    36    37    2
    35    31    33   ar
    36    35    38    1
    37    32    33   ar
    38    47    46    2
    39    65    66    1
    40    65    62    1
    41    38    39    1
    42    40    39   ar
    43    40    42   ar
    44    68    66   ar
    45    68    70   ar
    46    39    41   ar
    47    66    67   ar
    48    42    43   ar
    49    70    71   ar
    50   107   106    1
    51   112   111    2
    52   108   106    1
    53    61    62    1
    54    41    43   ar
    55    44    45    1
    56   106   103    1
    57    57    56    2
    58    67    69   ar
    59    60    58    1
    60    46    45    1
    61    71    69   ar
    62    58    55    1
    63    58    59    1
    64    62    63    1
    65    54    55    1
    66   113   114    1
    67   113   110    1
    68   115   114    1
    69   115   109    1
    70   122   121    1
    71   122   116    1
    72    63    64    2
    73   111   110    1
    74   111   116   am
    75    45    48    1
    76    48    49    1
    77   121   120    1
    78    55    56    1
    79   109   110    1
    80   109   104   am
    81   116   117    1
    82   103   104    1
    83   103   102    1
    84   104   105    2
    85    49    50   ar
    86    49    51   ar
    87    50    52   ar
    88   120   117    1
    89   117   118    1
    90   102    97   am
    91    51    53   ar
    92    52    53   ar
    93   100    99    1
    94    98    97    2
    95    97    96    1
    96    93    92    1
    97    85    84    1
    98   118   119    2
    99    94    92    1
   100    79    77    1
   101    99    96    1
   102    99   101    1
   103    78    77    1
   104    91    92    1
   105    91    88    1
   106    96    95    1
   107    95    89   am
   108    86    84    1
   109    84    81    1
   110    77    76    1
   111    89    88    1
   112    89    90    2
   113    88    87    1
   114    81    82    1
   115    81    80    1
   116   143   142   ar
   117   143   141   ar
   118    82    83    2
   119    76    73    1
   120   142   140   ar
   121   141   139   ar
   122    73    74    1
   123    73    72    1
   124   129   127    1
   125   140   137   ar
   126    74    75    2
   127   139   137   ar
   128   139   138   ar
   129   128   127    1
   130   137   135   ar
   131   127   124    1
   132   138   136   ar
   133   124   123    1
   134   124   125    1
   135   135   136   ar
   136   135   134    1
   137   131   134    1
   138   131   132    1
   139   131   130    1
   140   125   126    2
   141   132   133    2
