@<TRIPOS>MOLECULE
tmp/1if8A00.pdb
 144 141 0 0 0
SMALL
GASTEIGER

@<TRIPOS>ATOM
      1  N          9.8700    2.6500   19.2590 N.3    18  PHE18      -0.1241
      2  CA         8.7790    3.2220   20.0540 C.3    18  PHE18       0.1605
      3  C          8.9100    2.7410   21.4920 C.2    18  PHE18       0.2264
      4  O          8.3540    1.7220   21.8730 O.2    18  PHE18      -0.2867
      5  CB         7.4270    2.8490   19.4440 C.3    18  PHE18       0.0534
      6  CG         7.3150    3.1810   17.9740 C.ar   18  PHE18      -0.0203
      7  CD1        6.9960    4.4690   17.5600 C.ar   18  PHE18      -0.0042
      8  CD2        7.5930    2.2180   17.0050 C.ar   18  PHE18      -0.0042
      9  CE1        6.9600    4.8010   16.1910 C.ar   18  PHE18      -0.0003
     10  CE2        7.5600    2.5400   15.6260 C.ar   18  PHE18      -0.0003
     11  CZ         7.2440    3.8340   15.2250 C.ar   18  PHE18      -0.0000
     12  N        -12.8570    5.9050   11.5910 N.3    90  GLN90      -0.1245
     13  CA       -12.5450    4.7290   10.7640 C.3    90  GLN90       0.1566
     14  C        -12.7030    3.4180   11.5190 C.2    90  GLN90       0.2260
     15  O        -12.8280    3.4280   12.7320 O.2    90  GLN90      -0.2867
     16  CB       -11.1140    4.8070   10.1770 C.3    90  GLN90       0.0367
     17  CG        -9.9460    4.8620   11.1960 C.3    90  GLN90       0.0905
     18  CD        -9.1760    3.5400   11.3680 C.2    90  GLN90       0.2608
     19  OE1       -9.7480    2.4500   11.3580 O.2    90  GLN90      -0.2717
     20  NE2       -7.8680    3.6470   11.5400 N.am   90  GLN90      -0.0878
     21  N        -11.3870   -0.9510   11.2620 N.3    92  HIS92      -0.1241
     22  CA       -10.4570   -1.9360   10.6760 C.3    92  HIS92       0.1621
     23  C        -10.5030   -3.2680   11.4360 C.2    92  HIS92       0.2264
     24  O        -11.0790   -3.3590   12.5240 O.2    92  HIS92      -0.2867
     25  CB        -9.0050   -1.4050   10.6880 C.3    92  HIS92       0.0745
     26  CG        -8.4800   -1.0790   12.0600 C.ar   92  HIS92       0.0817
     27  ND1       -8.4960    0.1830   12.6160 N.ar   92  HIS92      -0.2268
     28  CD2       -7.9220   -1.8860   13.0010 C.ar   92  HIS92       0.1154
     29  CE1       -7.9680    0.1100   13.8510 C.ar   92  HIS92       0.1986
     30  NE2       -7.5970   -1.1260   14.1410 N.ar   92  HIS92      -0.2212
     31  N         -8.2880   -7.1150   12.5640 N.3    94  HIS94      -0.1241
     32  CA        -7.0370   -7.7930   12.9010 C.3    94  HIS94       0.1621
     33  C         -7.4660   -9.2710   12.7230 C.2    94  HIS94       0.2264
     34  O         -8.5500   -9.6610   13.1750 O.2    94  HIS94      -0.2867
     35  CB        -6.6080   -7.5040   14.3630 C.3    94  HIS94       0.0745
     36  CG        -6.2890   -6.0600   14.6360 C.ar   94  HIS94       0.0817
     37  ND1       -5.0420   -5.4960   14.4920 N.ar   94  HIS94      -0.2268
     38  CD2       -7.0950   -5.0440   15.0390 C.ar   94  HIS94       0.1154
     39  CE1       -5.1340   -4.1920   14.7990 C.ar   94  HIS94       0.1986
     40  NE2       -6.3620   -3.8500   15.1450 N.ar   94  HIS94      -0.2212
     41  N        -12.2460   -3.1630   15.0950 N.3   117  HIS117     -0.1241
     42  CA       -11.9880   -1.9290   15.8330 C.3   117  HIS117      0.1621
     43  C        -12.6440   -0.7110   15.1910 C.2   117  HIS117      0.2264
     44  O        -12.2770   -0.3370   14.0720 O.2   117  HIS117     -0.2867
     45  CB       -10.4860   -1.6650   15.9230 C.3   117  HIS117      0.0745
     46  CG        -9.7430   -2.6430   16.7790 C.ar  117  HIS117      0.0817
     47  ND1       -8.3710   -2.7570   16.7240 N.ar  117  HIS117     -0.2268
     48  CD2      -10.2290   -3.4980   17.7130 C.ar  117  HIS117      0.1154
     49  CE1       -8.0650   -3.6700   17.6250 C.ar  117  HIS117      0.1986
     50  NE2       -9.1570   -4.1440   18.2420 N.ar  117  HIS117     -0.2212
     51  N        -12.9280    3.0450   15.5730 N.3   119  VAL119     -0.1245
     52  CA       -12.1720    4.1340   16.1850 C.3   119  VAL119      0.1561
     53  C        -12.8800    5.4890   16.2320 C.2   119  VAL119      0.2260
     54  O        -13.3210    5.9900   15.1980 O.2   119  VAL119     -0.2867
     55  CB       -10.7810    4.2800   15.4650 C.3   119  VAL119      0.0252
     56  CG1       -9.8440    5.1910   16.2420 C.3   119  VAL119      0.0019
     57  CG2      -10.1430    2.9220   15.2710 C.3   119  VAL119      0.0019
     58  N         -8.5170   15.0550   15.1190 N.3   128  PHE128     -0.1227
     59  CA        -7.8480   13.8120   15.4870 C.3   128  PHE128      0.1736
     60  C         -6.4140   13.9940   15.9840 C.2   128  PHE128      0.2596
     61  O         -5.9990   13.3740   16.9770 O.2   128  PHE128     -0.2718
     62  CB        -7.8760   12.8290   14.3090 C.3   128  PHE128      0.0547
     63  CG        -7.3310   11.4620   14.6420 C.ar  128  PHE128     -0.0202
     64  CD1       -8.1160   10.5320   15.2930 C.ar  128  PHE128     -0.0042
     65  CD2       -6.0390   11.1040   14.2770 C.ar  128  PHE128     -0.0042
     66  CE1       -7.6210    9.2540   15.5740 C.ar  128  PHE128     -0.0003
     67  CE2       -5.5390    9.8390   14.5540 C.ar  128  PHE128     -0.0003
     68  CZ        -6.3310    8.9140   15.2030 C.ar  128  PHE128     -0.0000
     69  N         -5.6770   14.8700   15.3100 N.am  129  GLY129     -0.1957
     70  CA        -4.2950   15.1290   15.6700 C.3   129  GLY129      0.1869
     71  C         -4.1040   15.6100   17.0980 C.2   129  GLY129      0.2309
     72  O         -3.1070   15.2860   17.7280 O.2   129  GLY129     -0.2863
     73  N         -4.9780   12.6750   19.8430 N.3   132  VAL132     -0.1245
     74  CA        -3.8830   11.7510   20.1350 C.3   132  VAL132      0.1561
     75  C         -2.8160   12.3360   21.0850 C.2   132  VAL132      0.2260
     76  O         -1.7950   11.7160   21.3260 O.2   132  VAL132     -0.2867
     77  CB        -3.2220   11.1570   18.8460 C.3   132  VAL132      0.0252
     78  CG1       -4.3010   10.5280   17.9460 C.3   132  VAL132      0.0019
     79  CG2       -2.4320   12.2010   18.0950 C.3   132  VAL132      0.0019
     80  N        -12.1060    3.2620   21.3870 N.3   140  VAL140     -0.1245
     81  CA       -12.1710    2.2130   20.3780 C.3   140  VAL140      0.1561
     82  C        -13.1610    1.1590   20.8590 C.2   140  VAL140      0.2260
     83  O        -13.0580    0.6470   21.9790 O.2   140  VAL140     -0.2867
     84  CB       -10.7940    1.5420   20.0880 C.3   140  VAL140      0.0252
     85  CG1      -10.9050    0.5940   18.8840 C.3   140  VAL140      0.0019
     86  CG2       -9.7360    2.5950   19.8420 C.3   140  VAL140      0.0019
     87  N         -3.1110    2.3800   21.6800 N.3   195  LEU195     -0.1231
     88  CA        -3.2900    1.9200   20.2910 C.3   195  LEU195      0.1693
     89  C         -2.5260    0.5900   20.2770 C.2   195  LEU195      0.2593
     90  O         -1.5610    0.4520   21.0280 O.2   195  LEU195     -0.2718
     91  CB        -2.5890    2.8810   19.3390 C.3   195  LEU195      0.0284
     92  CG        -3.0970    4.3120   19.3540 C.3   195  LEU195      0.0019
     93  CD1       -2.1410    5.1850   18.5780 C.3   195  LEU195      0.0001
     94  CD2       -4.4940    4.3630   18.7500 C.3   195  LEU195      0.0001
     95  N         -2.9510   -0.3960   19.4900 N.am  196  THR196     -0.1939
     96  CA        -2.2380   -1.6700   19.4630 C.3   196  THR196      0.2028
     97  C         -1.1820   -1.7580   18.3620 C.2   196  THR196      0.2643
     98  O         -0.6530   -2.8470   18.0920 O.2   196  THR196     -0.2714
     99  CB        -3.1810   -2.8520   19.3120 C.3   196  THR196      0.1808
    100  OG1       -3.8430   -2.7700   18.0450 O.3   196  THR196     -0.2208
    101  CG2       -4.2050   -2.8780   20.4440 C.3   196  THR196      0.0379
    102  N         -0.9230   -0.6330   17.6930 N.am  197  THR197     -0.1937
    103  CA         0.0810   -0.5570   16.6260 C.3   197  THR197      0.2013
    104  C          0.8960    0.7450   16.8080 C.2   197  THR197      0.2484
    105  O          0.4670    1.6580   17.5380 O.2   197  THR197     -0.2729
    106  CB        -0.5920   -0.5320   15.2000 C.3   197  THR197      0.1807
    107  OG1       -1.3330    0.6820   15.0450 O.3   197  THR197     -0.2208
    108  CG2       -1.5480   -1.7070   15.0050 C.3   197  THR197      0.0379
    109  N          2.1250    0.8070   16.2480 N.am  198  PRO198     -0.2715
    110  CA         2.8920    2.0490   16.4040 C.3   198  PRO198      0.1521
    111  C          2.0150    3.2230   15.9310 C.2   198  PRO198      0.2440
    112  O          1.2710    3.0880   14.9540 O.2   198  PRO198     -0.2731
    113  CB         4.0920    1.8130   15.4830 C.3   198  PRO198      0.0310
    114  CG         4.3620    0.3470   15.6990 C.3   198  PRO198      0.0237
    115  CD         2.9600   -0.2470   15.6330 C.3   198  PRO198      0.0939
    116  N          2.1410    4.4080   16.5570 N.am  199  PRO199     -0.2727
    117  CA         2.9720    4.8970   17.6530 C.3   199  PRO199      0.1402
    118  C          2.7100    4.3530   19.0670 C.2   199  PRO199      0.2269
    119  O          3.3760    4.7940   20.0190 O.2   199  PRO199     -0.2865
    120  CB         2.7120    6.4020   17.6150 C.3   199  PRO199      0.0296
    121  CG         2.1850    6.6460   16.3040 C.3   199  PRO199      0.0237
    122  CD         1.3000    5.5100   16.0750 C.3   199  PRO199      0.0939
    123  N          0.4870    5.0370   21.2390 N.3   201  LEU201     -0.1245
    124  CA         0.1240    6.1240   22.1620 C.3   201  LEU201      0.1561
    125  C         -0.9380    5.7310   23.2240 C.2   201  LEU201      0.2260
    126  O         -1.9310    5.0760   22.9270 O.2   201  LEU201     -0.2867
    127  CB        -0.3310    7.3510   21.3570 C.3   201  LEU201      0.0270
    128  CG         0.6770    7.7890   20.2870 C.3   201  LEU201      0.0019
    129  CD1        0.1270    8.9310   19.4790 C.3   201  LEU201      0.0001
    130  CD2        1.9940    8.1830   20.9170 C.3   201  LEU201      0.0001
    131  N        -10.7340    1.6860   26.2060 N.3   206  TRP206     -0.1241
    132  CA       -11.2030    0.5150   25.5020 C.3   206  TRP206      0.1605
    133  C        -12.5620    0.0350   26.0050 C.2   206  TRP206      0.2264
    134  O        -12.8030   -0.0270   27.2140 O.2   206  TRP206     -0.2867
    135  CB       -10.1720   -0.6060   25.5800 C.3   206  TRP206      0.0550
    136  CG        -9.0440   -0.4290   24.6170 C.ar  206  TRP206      0.0003
    137  CD1       -7.8110    0.1050   24.8730 C.ar  206  TRP206      0.0946
    138  CD2       -9.0200   -0.8610   23.2480 C.ar  206  TRP206      0.0152
    139  NE1       -7.0170    0.0200   23.7540 N.ar  206  TRP206     -0.2442
    140  CE2       -7.7310   -0.5690   22.7410 C.ar  206  TRP206      0.0810
    141  CE3       -9.9600   -1.4770   22.4040 C.ar  206  TRP206      0.0012
    142  CZ2       -7.3560   -0.8760   21.4210 C.ar  206  TRP206      0.0191
    143  CZ3       -9.5840   -1.7820   21.0910 C.ar  206  TRP206      0.0001
    144  CH2       -8.2950   -1.4790   20.6170 C.ar  206  TRP206      0.0015
@<TRIPOS>BOND
     1    16    13    1
     2    16    17    1
     3    22    25    1
     4    22    21    1
     5    22    23    1
     6    25    26    1
     7    13    14    1
     8    13    12    1
     9    17    18    1
    10    19    18    2
    11    18    20   am
    12    23    24    2
    13    14    15    2
    14    26    27   ar
    15    26    28   ar
    16    31    32    1
    17    27    29   ar
    18    33    32    1
    19    33    34    2
    20    32    35    1
    21    28    30   ar
    22    29    30   ar
    23    44    43    2
    24    65    67   ar
    25    65    63   ar
    26    62    63    1
    27    62    59    1
    28    35    36    1
    29    37    36   ar
    30    37    39   ar
    31    67    68   ar
    32    36    38   ar
    33    63    64   ar
    34    39    40   ar
    35   112   111    2
    36   108   106    1
    37    38    40   ar
    38   107   106    1
    39    41    42    1
    40    58    59    1
    41    43    42    1
    42    54    53    2
    43   106   103    1
    44    68    66   ar
    45    11    10   ar
    46    11     9   ar
    47    57    55    1
    48    64    66   ar
    49    69    70    1
    50    69    60   am
    51    55    52    1
    52    55    56    1
    53   113   114    1
    54   113   110    1
    55    59    60    1
    56    51    52    1
    57    10     8   ar
    58   115   114    1
    59   115   109    1
    60    70    71    1
    61    42    45    1
    62    45    46    1
    63   111   110    1
    64   111   116   am
    65    60    61    2
    66   122   121    1
    67   122   116    1
    68    52    53    1
    69     9     7   ar
    70   109   110    1
    71   109   104   am
    72   121   120    1
    73   116   117    1
    74   103   104    1
    75   103   102    1
    76    47    46   ar
    77    47    49   ar
    78    46    48   ar
    79   104   105    2
    80     8     6   ar
    81    71    72    2
    82     7     6   ar
    83   120   117    1
    84    49    50   ar
    85   117   118    1
    86   102    97   am
    87    48    50   ar
    88    78    77    1
    89     6     5    1
    90   100    99    1
    91    98    97    2
    92    79    77    1
    93    97    96    1
    94    93    92    1
    95    94    92    1
    96    77    74    1
    97    85    84    1
    98   118   119    2
    99     1     2    1
   100    99    96    1
   101    99   101    1
   102    91    92    1
   103    91    88    1
   104     5     2    1
   105    96    95    1
   106   129   128    1
   107    95    89   am
   108    86    84    1
   109    73    74    1
   110     2     3    1
   111    84    81    1
   112    74    75    1
   113    89    88    1
   114    89    90    2
   115   128   130    1
   116   128   127    1
   117    88    87    1
   118    81    82    1
   119    81    80    1
   120   144   143   ar
   121   144   142   ar
   122    82    83    2
   123    75    76    2
   124   143   141   ar
   125   123   124    1
   126   127   124    1
   127   142   140   ar
   128     3     4    2
   129   124   125    1
   130   141   138   ar
   131   140   138   ar
   132   140   139   ar
   133   126   125    2
   134   138   136   ar
   135   139   137   ar
   136   136   137   ar
   137   136   135    1
   138   132   135    1
   139   132   133    1
   140   132   131    1
   141   133   134    2
