@<TRIPOS>MOLECULE
tmp/1if9A00.pdb
 152 149 0 0 0
SMALL
GASTEIGER

@<TRIPOS>ATOM
      1  N         -0.7380   -1.9900    6.3330 N.3    62  HIS62      -0.1241
      2  CA        -0.7930   -2.7600    7.5720 C.3    62  HIS62       0.1621
      3  C         -2.2040   -3.2320    7.9260 C.2    62  HIS62       0.2264
      4  O         -2.3890   -4.0720    8.8040 O.2    62  HIS62      -0.2867
      5  CB        -0.0960   -2.0510    8.7350 C.3    62  HIS62       0.0745
      6  CG        -0.6000   -0.6730    9.0130 C.ar   62  HIS62       0.0817
      7  ND1       -1.5600   -0.4150    9.9670 N.ar   62  HIS62      -0.2268
      8  CD2       -0.2370    0.5290    8.5090 C.ar   62  HIS62       0.1154
      9  CE1       -1.7690    0.8870   10.0400 C.ar   62  HIS62       0.1986
     10  NE2       -0.9770    1.4830    9.1660 N.ar   62  HIS62      -0.2212
     11  N        -12.4830    4.9500    5.6800 N.3    67  GLU67      -0.1245
     12  CA       -12.4940    6.2660    6.2800 C.3    67  GLU67       0.1567
     13  C        -13.8660    6.8820    6.1560 C.2    67  GLU67       0.2260
     14  O        -14.6150    6.5770    5.2270 O.2    67  GLU67      -0.2867
     15  CB       -11.4570    7.1440    5.6230 C.3    67  GLU67       0.0388
     16  CG       -10.0870    6.5340    5.6340 C.3    67  GLU67       0.1160
     17  CD        -9.1970    7.1100    4.5670 C.2    67  GLU67       0.3649
     18  OE1       -9.7160    7.8080    3.6800 O.co2  67  GLU67      -0.2457
     19  OE2       -7.9810    6.8550    4.6020 O.co2  67  GLU67      -0.2457
     20  N        -13.8320    8.2720   12.7900 N.3    89  ILE89      -0.1231
     21  CA       -12.9860    8.7350   11.7060 C.3    89  ILE89       0.1692
     22  C        -12.6910    7.5610   10.7700 C.2    89  ILE89       0.2591
     23  O        -12.7060    7.7010    9.5530 O.2    89  ILE89      -0.2718
     24  CB       -11.6720    9.3810   12.1970 C.3    89  ILE89       0.0266
     25  CG1      -10.8430    9.8540   10.9890 C.3    89  ILE89       0.0019
     26  CG2      -10.8820    8.4160   13.0630 C.3    89  ILE89       0.0020
     27  CD1       -9.5100   10.4620   11.3400 C.3    89  ILE89       0.0001
     28  N        -12.4360    6.3940   11.3260 N.am   90  GLN90      -0.1979
     29  CA       -12.1630    5.2480   10.4870 C.3    90  GLN90       0.1601
     30  C        -12.3770    3.9660   11.2460 C.2    90  GLN90       0.2287
     31  O        -12.5340    3.9800   12.4680 O.2    90  GLN90      -0.2864
     32  CB       -10.7150    5.2880    9.9540 C.3    90  GLN90       0.0394
     33  CG        -9.6230    5.4640   11.0270 C.3    90  GLN90       0.0908
     34  CD        -8.8050    4.2150   11.2660 C.2    90  GLN90       0.2608
     35  OE1       -9.3170    3.1040   11.1870 O.2    90  GLN90      -0.2717
     36  NE2       -7.5230    4.3910   11.5740 N.am   90  GLN90      -0.0878
     37  N        -11.0840   -0.3070   10.9670 N.3    92  HIS92      -0.1241
     38  CA       -10.1830   -1.2530   10.3290 C.3    92  HIS92       0.1621
     39  C        -10.2920   -2.5190   11.1480 C.2    92  HIS92       0.2264
     40  O        -10.9450   -2.5420   12.2060 O.2    92  HIS92      -0.2867
     41  CB        -8.7360   -0.7500   10.3380 C.3    92  HIS92       0.0745
     42  CG        -8.2290   -0.4190   11.7030 C.ar   92  HIS92       0.0817
     43  ND1       -8.3540    0.8190   12.2900 N.ar   92  HIS92      -0.2268
     44  CD2       -7.6380   -1.2060   12.6320 C.ar   92  HIS92       0.1154
     45  CE1       -7.8580    0.7440   13.5250 C.ar   92  HIS92       0.1986
     46  NE2       -7.4110   -0.4700   13.7790 N.ar   92  HIS92      -0.2212
     47  N         -8.0850   -6.3080   12.3470 N.3    94  HIS94      -0.1241
     48  CA        -6.8200   -6.9850   12.5760 C.3    94  HIS94       0.1621
     49  C         -7.3290   -8.4000   12.4470 C.2    94  HIS94       0.2264
     50  O         -8.4390   -8.7030   12.9090 O.2    94  HIS94      -0.2867
     51  CB        -6.2970   -6.7360   13.9880 C.3    94  HIS94       0.0745
     52  CG        -5.9760   -5.3040   14.2420 C.ar   94  HIS94       0.0817
     53  ND1       -4.7520   -4.7280   13.9830 N.ar   94  HIS94      -0.2268
     54  CD2       -6.7700   -4.2980   14.6770 C.ar   94  HIS94       0.1154
     55  CE1       -4.8420   -3.4250   14.2610 C.ar   94  HIS94       0.1986
     56  NE2       -6.0520   -3.1220   14.6870 N.ar   94  HIS94      -0.2212
     57  N        -11.9660   -2.3780   14.8370 N.3   117  HIS117     -0.1241
     58  CA       -11.7000   -1.2070   15.6450 C.3   117  HIS117      0.1621
     59  C        -12.3620   -0.0350   14.9720 C.2   117  HIS117      0.2264
     60  O        -12.0390    0.2910   13.8140 O.2   117  HIS117     -0.2867
     61  CB       -10.1970   -0.9510   15.7600 C.3   117  HIS117      0.0745
     62  CG        -9.4760   -1.9500   16.6170 C.ar  117  HIS117      0.0817
     63  ND1       -8.1180   -2.1090   16.5440 N.ar  117  HIS117     -0.2268
     64  CD2       -9.9710   -2.7920   17.5570 C.ar  117  HIS117      0.1154
     65  CE1       -7.8200   -3.0370   17.4330 C.ar  117  HIS117      0.1986
     66  NE2       -8.9040   -3.4720   18.0640 N.ar  117  HIS117     -0.2212
     67  N        -12.5840    3.5700   15.1930 N.3   119  VAL119     -0.1245
     68  CA       -11.7980    4.6480   15.7840 C.3   119  VAL119      0.1561
     69  C        -12.4980    5.9760   15.8510 C.2   119  VAL119      0.2260
     70  O        -12.8920    6.5280   14.8200 O.2   119  VAL119     -0.2867
     71  CB       -10.4260    4.8250   15.0610 C.3   119  VAL119      0.0252
     72  CG1       -9.5180    5.7960   15.8320 C.3   119  VAL119      0.0019
     73  CG2       -9.7400    3.4980   14.9300 C.3   119  VAL119      0.0019
     74  N         -8.2810   15.1930   14.7070 N.3   128  PHE128     -0.1227
     75  CA        -7.6680   13.9280   15.0710 C.3   128  PHE128      0.1736
     76  C         -6.2250   14.0950   15.5700 C.2   128  PHE128      0.2596
     77  O         -5.8290   13.4730   16.5520 O.2   128  PHE128     -0.2718
     78  CB        -7.7310   12.9560   13.8960 C.3   128  PHE128      0.0547
     79  CG        -7.3120   11.5750   14.2430 C.ar  128  PHE128     -0.0202
     80  CD1       -8.2370   10.6580   14.7070 C.ar  128  PHE128     -0.0042
     81  CD2       -5.9890   11.1920   14.1270 C.ar  128  PHE128     -0.0042
     82  CE1       -7.8580    9.3800   15.0550 C.ar  128  PHE128     -0.0003
     83  CE2       -5.5910    9.9160   14.4690 C.ar  128  PHE128     -0.0003
     84  CZ        -6.5270    9.0040   14.9370 C.ar  128  PHE128     -0.0000
     85  N         -5.4510   14.9600   14.9260 N.am  129  GLY129     -0.1957
     86  CA        -4.0730   15.1640   15.3530 C.3   129  GLY129      0.1869
     87  C         -3.9270   15.6750   16.7840 C.2   129  GLY129      0.2309
     88  O         -2.9790   15.3220   17.4840 O.2   129  GLY129     -0.2863
     89  N         -4.8350   12.8610   19.5200 N.3   132  VAL132     -0.1245
     90  CA        -3.7790   11.8740   19.7780 C.3   132  VAL132      0.1561
     91  C         -2.6900   12.4060   20.7200 C.2   132  VAL132      0.2260
     92  O         -1.7190   11.7230   21.0130 O.2   132  VAL132     -0.2867
     93  CB        -3.1430   11.2780   18.4900 C.3   132  VAL132      0.0252
     94  CG1       -4.1670   10.4810   17.7300 C.3   132  VAL132      0.0019
     95  CG2       -2.5220   12.3630   17.6250 C.3   132  VAL132      0.0019
     96  N        -11.7930    3.8190   21.0370 N.3   140  VAL140     -0.1245
     97  CA       -11.8870    2.8180   20.0040 C.3   140  VAL140      0.1561
     98  C        -12.8750    1.7730   20.4760 C.2   140  VAL140      0.2260
     99  O        -12.7760    1.2790   21.6020 O.2   140  VAL140     -0.2867
    100  CB       -10.5360    2.1500   19.7020 C.3   140  VAL140      0.0252
    101  CG1      -10.6720    1.2270   18.4970 C.3   140  VAL140      0.0019
    102  CG2       -9.4880    3.1870   19.4320 C.3   140  VAL140      0.0019
    103  N         -2.9830    3.0560   21.1360 N.3   195  LEU195     -0.1231
    104  CA        -3.1760    2.6150   19.7600 C.3   195  LEU195      0.1693
    105  C         -2.4040    1.3100   19.7730 C.2   195  LEU195      0.2593
    106  O         -1.3990    1.2140   20.4730 O.2   195  LEU195     -0.2718
    107  CB        -2.4660    3.5540   18.8070 C.3   195  LEU195      0.0284
    108  CG        -3.0310    4.9560   18.7130 C.3   195  LEU195      0.0019
    109  CD1       -2.2070    5.7180   17.7050 C.3   195  LEU195      0.0001
    110  CD2       -4.4620    4.8760   18.2790 C.3   195  LEU195      0.0001
    111  N         -2.8270    0.3340   18.9860 N.am  196  THR196     -0.1939
    112  CA        -2.1460   -0.9460   18.9700 C.3   196  THR196      0.2028
    113  C         -1.0870   -1.0670   17.8880 C.2   196  THR196      0.2643
    114  O         -0.4820   -2.1270   17.7110 O.2   196  THR196     -0.2714
    115  CB        -3.1390   -2.0890   18.8360 C.3   196  THR196      0.1808
    116  OG1       -3.9180   -1.9010   17.6510 O.3   196  THR196     -0.2208
    117  CG2       -4.0850   -2.1240   20.0370 C.3   196  THR196      0.0379
    118  N         -0.9300   -0.0100   17.1030 N.am  197  THR197     -0.1937
    119  CA         0.0750    0.0180   16.0550 C.3   197  THR197      0.2013
    120  C          0.7930    1.3190   16.3220 C.2   197  THR197      0.2484
    121  O          0.2320    2.2290   16.9510 O.2   197  THR197     -0.2729
    122  CB        -0.5420    0.0770   14.6300 C.3   197  THR197      0.1807
    123  OG1       -1.2540    1.3030   14.4540 O.3   197  THR197     -0.2208
    124  CG2       -1.5040   -1.0610   14.4040 C.3   197  THR197      0.0379
    125  N          2.0760    1.3940   15.9460 N.am  198  PRO198     -0.2715
    126  CA         2.8760    2.6020   16.1360 C.3   198  PRO198      0.1521
    127  C          2.0540    3.7480   15.5750 C.2   198  PRO198      0.2440
    128  O          1.3180    3.5520   14.6150 O.2   198  PRO198     -0.2731
    129  CB         4.0910    2.3170   15.2580 C.3   198  PRO198      0.0310
    130  CG         4.2810    0.8750   15.4600 C.3   198  PRO198      0.0237
    131  CD         2.8840    0.3290   15.3370 C.3   198  PRO198      0.0939
    132  N          2.1820    4.9600   16.1300 N.am  199  PRO199     -0.2727
    133  CA         3.0190    5.4160   17.2390 C.3   199  PRO199      0.1402
    134  C          2.6580    4.8800   18.6410 C.2   199  PRO199      0.2269
    135  O          3.2760    5.2690   19.6200 O.2   199  PRO199     -0.2865
    136  CB         2.8850    6.9330   17.1450 C.3   199  PRO199      0.0296
    137  CG         1.4860    7.1040   16.6810 C.3   199  PRO199      0.0237
    138  CD         1.3680    6.0690   15.6000 C.3   199  PRO199      0.0939
    139  N        -10.5280    2.3420   25.6900 N.3   206  TRP206     -0.1241
    140  CA       -10.9570    1.1800   24.9520 C.3   206  TRP206      0.1605
    141  C        -12.2870    0.7140   25.4570 C.2   206  TRP206      0.2264
    142  O        -12.5040    0.6290   26.6660 O.2   206  TRP206     -0.2867
    143  CB        -9.9280    0.0730   25.0830 C.3   206  TRP206      0.0550
    144  CG        -8.8580    0.2140   24.0980 C.ar  206  TRP206      0.0003
    145  CD1       -7.6420    0.8040   24.2760 C.ar  206  TRP206      0.0946
    146  CD2       -8.8890   -0.2560   22.7510 C.ar  206  TRP206      0.0152
    147  NE1       -6.9120    0.7290   23.1170 N.ar  206  TRP206     -0.2442
    148  CE2       -7.6510    0.0770   22.1660 C.ar  206  TRP206      0.0810
    149  CE3       -9.8460   -0.9330   21.9830 C.ar  206  TRP206      0.0012
    150  CZ2       -7.3400   -0.2480   20.8430 C.ar  206  TRP206      0.0191
    151  CZ3       -9.5410   -1.2560   20.6790 C.ar  206  TRP206      0.0001
    152  CH2       -8.2940   -0.9130   20.1210 C.ar  206  TRP206      0.0015
@<TRIPOS>BOND
     1    18    17   ar
     2    17    19   ar
     3    17    16    1
     4    14    13    2
     5    15    16    1
     6    15    12    1
     7    11    12    1
     8    13    12    1
     9     1     2    1
    10     2     3    1
    11     2     5    1
    12     3     4    2
    13     8     6   ar
    14     8    10   ar
    15     5     6    1
    16     6     7   ar
    17    10     9   ar
    18    23    22    2
    19    32    29    1
    20    32    33    1
    21     7     9   ar
    22    38    41    1
    23    38    37    1
    24    38    39    1
    25    41    42    1
    26    29    30    1
    27    29    28    1
    28    22    28   am
    29    22    21    1
    30    25    27    1
    31    25    24    1
    32    33    34    1
    33    39    40    2
    34    35    34    2
    35    30    31    2
    36    34    36   am
    37    42    43   ar
    38    42    44   ar
    39    21    24    1
    40    21    20    1
    41    24    26    1
    42    43    45   ar
    43    47    48    1
    44    49    48    1
    45    49    50    2
    46    48    51    1
    47    44    46   ar
    48    45    46   ar
    49    60    59    2
    50    78    79    1
    51    78    75    1
    52    53    52   ar
    53    53    55   ar
    54    51    52    1
    55    81    79   ar
    56    81    83   ar
    57    52    54   ar
    58    79    80   ar
    59    55    56   ar
    60   124   122    1
    61   123   122    1
    62    83    84   ar
    63   128   127    2
    64   122   119    1
    65    54    56   ar
    66    80    82   ar
    67    74    75    1
    68    70    69    2
    69    57    58    1
    70    85    86    1
    71    85    76   am
    72    73    71    1
    73    84    82   ar
    74    59    58    1
    75    71    68    1
    76    71    72    1
    77    75    76    1
    78    67    68    1
    79   129   130    1
    80   129   126    1
    81   131   130    1
    82   131   125    1
    83    86    87    1
    84    76    77    2
    85   127   132   am
    86   127   126    1
    87   138   132    1
    88   138   137    1
    89    58    61    1
    90    61    62    1
    91    68    69    1
    92   125   126    1
    93   125   120   am
    94   119   120    1
    95   119   118    1
    96   132   133    1
    97   120   121    2
    98    63    62   ar
    99    63    65   ar
   100    62    64   ar
   101   137   136    1
   102    87    88    2
   103   118   113   am
   104   136   133    1
   105   133   134    1
   106    65    66   ar
   107    64    66   ar
   108    95    93    1
   109   116   115    1
   110   109   108    1
   111   114   113    2
   112    94    93    1
   113   113   112    1
   114   110   108    1
   115    93    90    1
   116   101   100    1
   117   134   135    2
   118   108   107    1
   119   107   104    1
   120   115   112    1
   121   115   117    1
   122   112   111    1
   123   111   105   am
   124   102   100    1
   125    89    90    1
   126   100    97    1
   127   104   105    1
   128   104   103    1
   129   105   106    2
   130    90    91    1
   131    97    98    1
   132    97    96    1
   133   152   151   ar
   134   152   150   ar
   135    98    99    2
   136   151   149   ar
   137    91    92    2
   138   150   148   ar
   139   149   146   ar
   140   148   146   ar
   141   148   147   ar
   142   146   144   ar
   143   147   145   ar
   144   144   145   ar
   145   144   143    1
   146   140   143    1
   147   140   141    1
   148   140   139    1
   149   141   142    2
