@<TRIPOS>MOLECULE
tmp/1ifhB00.pdb
 105 101 0 0 0
SMALL
GASTEIGER

@<TRIPOS>ATOM
      1  N         25.1030   26.7460   39.2160 N.3    50  THR50      -0.1218
      2  CA        26.4310   27.2570   38.9190 C.3    50  THR50       0.1862
      3  C         27.1950   26.9570   40.2040 C.2    50  THR50       0.2287
      4  O         26.5890   27.0010   41.2760 O.2    50  THR50      -0.2866
      5  CB        26.4610   28.7950   38.6580 C.3    50  THR50       0.1770
      6  OG1       25.6130   29.0910   37.5580 O.3    50  THR50      -0.2211
      7  CG2       27.8660   29.2790   38.3370 C.3    50  THR50       0.0375
      8  N         31.2570   27.7750   41.7650 N.3    52  SER52      -0.1202
      9  CA        32.4080   28.5480   41.3890 C.3    52  SER52       0.2020
     10  C         33.5470   27.5520   41.4590 C.2    52  SER52       0.2619
     11  O         33.4420   26.4670   42.0200 O.2    52  SER52      -0.2717
     12  CB        32.6050   29.6990   42.3330 C.3    52  SER52       0.2103
     13  OG        32.7280   29.2560   43.6460 O.3    52  SER52      -0.2182
     14  N         34.6190   27.9650   40.8150 N.am   53  ASN53      -0.1960
     15  CA        35.8690   27.2640   40.5920 C.3    53  ASN53       0.1819
     16  C         36.5320   26.5240   41.7330 C.2    53  ASN53       0.2621
     17  O         37.2940   25.5740   41.5700 O.2    53  ASN53      -0.2715
     18  CB        36.7960   28.3110   39.9860 C.3    53  ASN53       0.1195
     19  CG        37.2740   29.3580   40.9660 C.2    53  ASN53       0.2630
     20  OD1       38.4460   29.5410   41.2570 O.2    53  ASN53      -0.2716
     21  ND2       36.3400   30.1020   41.5030 N.am   53  ASN53      -0.0877
     22  N         36.2700   26.9590   42.9440 N.am   54  GLY54      -0.1954
     23  CA        36.7800   26.2080   44.0810 C.3    54  GLY54       0.1869
     24  C         35.6470   25.5960   44.9110 C.2    54  GLY54       0.2309
     25  O         35.8210   25.3430   46.1080 O.2    54  GLY54      -0.2863
     26  N         33.4040   26.7870   46.5840 N.3    56  GLY56      -0.1210
     27  CA        32.9780   27.6260   47.6650 C.3    56  GLY56       0.1956
     28  C         31.7380   28.4610   47.3540 C.2    56  GLY56       0.2611
     29  O         31.2720   29.1440   48.2710 O.2    56  GLY56      -0.2717
     30  N         31.1840   28.5480   46.1280 N.am   57  TYR57      -0.1976
     31  CA        29.9520   29.3100   45.8900 C.3    57  TYR57       0.1639
     32  C         29.0770   28.5460   44.8960 C.2    57  TYR57       0.2290
     33  O         29.5510   28.1530   43.8350 O.2    57  TYR57      -0.2864
     34  CB        30.2170   30.7140   45.3130 C.3    57  TYR57       0.0560
     35  CG        31.1890   31.6470   46.0340 C.ar   57  TYR57      -0.0198
     36  CD1       32.5300   31.5030   45.7990 C.ar   57  TYR57      -0.0009
     37  CD2       30.7480   32.6650   46.8510 C.ar   57  TYR57      -0.0009
     38  CE1       33.4320   32.3660   46.3590 C.ar   57  TYR57       0.0417
     39  CE2       31.6470   33.5410   47.4110 C.ar   57  TYR57       0.0417
     40  CZ        32.9900   33.3880   47.1520 C.ar   57  TYR57       0.1957
     41  OH        33.9250   34.3050   47.6080 O.3    57  TYR57      -0.2866
     42  N         24.8770   28.3180   43.0860 N.3    59  TYR59      -0.1241
     43  CA        23.7840   29.2300   42.8080 C.3    59  TYR59       0.1605
     44  C         22.6490   28.4270   42.2130 C.2    59  TYR59       0.2264
     45  O         22.9160   27.5980   41.3400 O.2    59  TYR59      -0.2867
     46  CB        24.1940   30.3220   41.7940 C.3    59  TYR59       0.0534
     47  CG        25.4520   31.0900   42.1850 C.ar   59  TYR59      -0.0201
     48  CD1       26.7150   30.5940   41.8800 C.ar   59  TYR59      -0.0009
     49  CD2       25.3300   32.2430   42.9040 C.ar   59  TYR59      -0.0009
     50  CE1       27.8560   31.2390   42.3020 C.ar   59  TYR59       0.0417
     51  CE2       26.4620   32.8860   43.3270 C.ar   59  TYR59       0.0417
     52  CZ        27.7050   32.3930   43.0310 C.ar   59  TYR59       0.1957
     53  OH        28.8140   33.0990   43.4600 O.3    59  TYR59      -0.2866
     54  N         31.6650   28.3960   32.9070 N.3    99  ARG99      -0.1231
     55  CA        31.4130   29.8230   33.1190 C.3    99  ARG99       0.1694
     56  C         32.6930   30.5150   32.6960 C.2    99  ARG99       0.2592
     57  O         33.7800   30.1190   33.1350 O.2    99  ARG99      -0.2718
     58  CB        31.1060   30.1530   34.5870 C.3    99  ARG99       0.0321
     59  CG        29.6870   29.7910   34.8700 C.3    99  ARG99       0.0489
     60  CD        28.6800   30.6750   34.1440 C.3    99  ARG99       0.2205
     61  NE        28.5680   32.0060   34.7200 N.pl3  99  ARG99      -0.0865
     62  CZ        27.8040   33.0020   34.2720 C.cat  99  ARG99       0.5346
     63  NH1       27.0480   32.9020   33.1990 N.pl3  99  ARG99       0.1354
     64  NH2       27.7340   34.1090   34.9830 N.pl3  99  ARG99       0.1354
     65  N         32.6690   31.5440   31.8490 N.am  100  GLU100     -0.1966
     66  CA        33.9420   32.0600   31.3810 C.3   100  GLU100      0.1733
     67  C         34.4650   33.1830   32.2310 C.2   100  GLU100      0.2616
     68  O         34.4900   34.3530   31.8760 O.2   100  GLU100     -0.2715
     69  CB        33.8450   32.5190   29.9090 C.3   100  GLU100      0.0429
     70  CG        33.3550   31.4740   28.8870 C.3   100  GLU100      0.1163
     71  CD        34.0490   30.1030   28.8490 C.2   100  GLU100      0.3649
     72  OE1       35.2730   30.1180   28.6950 O.co2 100  GLU100     -0.2457
     73  OE2       33.3540   29.0620   28.9520 O.co2 100  GLU100     -0.2457
     74  N         34.9700   32.7430   33.3720 N.am  101  ARG101     -0.1977
     75  CA        35.6300   33.5540   34.4100 C.3   101  ARG101      0.1597
     76  C         36.6100   34.6220   33.9470 C.2   101  ARG101      0.2287
     77  O         36.8240   35.6020   34.6340 O.2   101  ARG101     -0.2864
     78  CB        36.3410   32.5940   35.3290 C.3   101  ARG101      0.0334
     79  CG        37.0350   33.2700   36.4360 C.3   101  ARG101      0.0492
     80  CD        38.4720   32.9550   36.3390 C.3   101  ARG101      0.2205
     81  NE        39.1410   33.6970   37.3940 N.pl3 101  ARG101     -0.0865
     82  CZ        39.8740   33.1160   38.3560 C.cat 101  ARG101      0.5346
     83  NH1       40.0530   31.7910   38.4040 N.pl3 101  ARG101      0.1354
     84  NH2       40.3860   33.8800   39.3340 N.pl3 101  ARG101      0.1354
     85  N         34.2350   36.6380   30.4290 N.3   104  GLU104     -0.1231
     86  CA        32.8990   37.0690   30.8410 C.3   104  GLU104      0.1699
     87  C         31.9580   37.3190   29.6840 C.2   104  GLU104      0.2592
     88  O         31.1630   38.2650   29.6120 O.2   104  GLU104     -0.2718
     89  CB        33.0320   38.3140   31.7160 C.3   104  GLU104      0.0402
     90  CG        33.6790   37.8810   33.0160 C.3   104  GLU104      0.1161
     91  CD        33.7330   38.9210   34.1060 C.2   104  GLU104      0.3649
     92  OE1       32.7050   39.5880   34.3100 O.co2 104  GLU104     -0.2457
     93  OE2       34.7820   39.0350   34.7590 O.co2 104  GLU104     -0.2457
     94  N         32.0120   36.3130   28.8280 N.am  105  ASN105     -0.1960
     95  CA        31.3420   36.4160   27.5710 C.3   105  ASN105      0.1819
     96  C         30.2870   35.3790   27.2720 C.2   105  ASN105      0.2621
     97  O         30.0930   35.1050   26.0910 O.2   105  ASN105     -0.2715
     98  CB        32.4210   36.4210   26.5070 C.3   105  ASN105      0.1195
     99  CG        32.9370   35.0320   26.2480 C.2   105  ASN105      0.2630
    100  OD1       33.3240   34.3450   27.1870 O.2   105  ASN105     -0.2716
    101  ND2       32.9190   34.5390   25.0220 N.am  105  ASN105     -0.0877
    102  N         29.5660   34.8410   28.2710 N.am  106  GLY106     -0.1954
    103  CA        28.4770   33.8650   28.0960 C.3   106  GLY106      0.1869
    104  C         28.8650   32.3810   28.1380 C.2   106  GLY106      0.2309
    105  O         29.9150   32.0430   28.6820 O.2   106  GLY106     -0.2863
@<TRIPOS>BOND
     1   101    99   am
     2    97    96    2
     3    99    98    1
     4    99   100    2
     5    98    95    1
     6    96    95    1
     7    96   102   am
     8    95    94    1
     9   103   104    1
    10   103   102    1
    11   104   105    2
    12    72    71   ar
    13    94    87   am
    14    71    70    1
    15    71    73   ar
    16    70    69    1
    17    88    87    2
    18    87    86    1
    19    69    66    1
    20    85    86    1
    21    86    89    1
    22    66    65    1
    23    66    67    1
    24    89    90    1
    25    65    56   am
    26    68    67    2
    27    67    74   am
    28    56    55    1
    29    56    57    2
    30    54    55    1
    31    90    91    1
    32    55    58    1
    33    63    62    1
    34    74    75    1
    35    76    75    1
    36    76    77    2
    37    91    92   ar
    38    91    93   ar
    39    60    61    1
    40    60    59    1
    41    62    61    2
    42    62    64    1
    43    75    78    1
    44    58    59    1
    45    78    79    1
    46    80    79    1
    47    80    81    1
    48    81    82    2
    49     6     5    1
    50     7     5    1
    51    82    83    1
    52    82    84    1
    53     5     2    1
    54     2     1    1
    55     2     3    1
    56    18    15    1
    57    18    19    1
    58     3     4    2
    59    15    14    1
    60    15    16    1
    61    14    10   am
    62    19    20    2
    63    19    21   am
    64    45    44    2
    65     9    10    1
    66     9     8    1
    67     9    12    1
    68    10    11    2
    69    17    16    2
    70    16    22   am
    71    46    47    1
    72    46    43    1
    73    48    47   ar
    74    48    50   ar
    75    47    49   ar
    76    44    43    1
    77    50    52   ar
    78    12    13    1
    79    43    42    1
    80    49    51   ar
    81    22    23    1
    82    52    51   ar
    83    52    53    1
    84    33    32    2
    85    23    24    1
    86    32    31    1
    87    24    25    2
    88    34    31    1
    89    34    35    1
    90    36    35   ar
    91    36    38   ar
    92    31    30    1
    93    35    37   ar
    94    30    28   am
    95    38    40   ar
    96    26    27    1
    97    37    39   ar
    98    40    39   ar
    99    40    41    1
   100    28    27    1
   101    28    29    2
