@<TRIPOS>MOLECULE
tmp/1ifuA00.pdb
 136 133 0 0 0
SMALL
GASTEIGER

@<TRIPOS>ATOM
      1  N         64.8070  -25.4690   90.9380 N.3    73  ASN73      -0.1225
      2  CA        63.4060  -25.1040   91.2240 C.3    73  ASN73       0.1785
      3  C         63.1990  -23.8390   92.0490 C.2    73  ASN73       0.2597
      4  O         62.0540  -23.4270   92.2750 O.2    73  ASN73      -0.2718
      5  CB        62.6660  -26.2640   91.8950 C.3    73  ASN73       0.1169
      6  CG        63.3230  -26.7250   93.2030 C.2    73  ASN73       0.2627
      7  OD1       64.2710  -26.1130   93.7020 O.2    73  ASN73      -0.2716
      8  ND2       62.8130  -27.8140   93.7570 N.am   73  ASN73      -0.0877
      9  N         64.2970  -23.2360   92.5020 N.am   74  ALA74      -0.1966
     10  CA        64.2620  -22.0110   93.3180 C.3    74  ALA74       0.1728
     11  C         63.6180  -22.2140   94.7030 C.2    74  ALA74       0.2616
     12  O         63.2730  -21.2590   95.3880 O.2    74  ALA74      -0.2715
     13  CB        63.5670  -20.9030   92.5710 C.3    74  ALA74       0.0334
     14  N         63.5520  -23.4760   95.1070 N.am   75  TYR75      -0.1960
     15  CA        62.9810  -23.9260   96.3520 C.3    75  TYR75       0.1771
     16  C         63.9830  -23.6550   97.4630 C.2    75  TYR75       0.2619
     17  O         65.1830  -23.8480   97.2600 O.2    75  TYR75      -0.2715
     18  CB        62.7790  -25.4390   96.2340 C.3    75  TYR75       0.0574
     19  CG        61.7480  -26.0860   97.1380 C.ar   75  TYR75      -0.0198
     20  CD1       62.0970  -26.5530   98.4190 C.ar   75  TYR75      -0.0009
     21  CD2       60.4460  -26.3230   96.6840 C.ar   75  TYR75      -0.0009
     22  CE1       61.1730  -27.2530   99.2390 C.ar   75  TYR75       0.0417
     23  CE2       59.5080  -27.0290   97.4860 C.ar   75  TYR75       0.0417
     24  CZ        59.8820  -27.4940   98.7680 C.ar   75  TYR75       0.1957
     25  OH        58.9800  -28.2210   99.5360 O.3    75  TYR75      -0.2866
     26  N         63.4850  -23.2030   98.6210 N.am   76  VAL76      -0.1977
     27  CA        64.3050  -22.9650   99.8210 C.3    76  VAL76       0.1596
     28  C         64.4370  -24.3410  100.4940 C.2    76  VAL76       0.2287
     29  O         63.4300  -24.9330  100.9090 O.2    76  VAL76      -0.2864
     30  CB        63.6060  -21.9980  100.8230 C.3    76  VAL76       0.0276
     31  CG1       64.4630  -21.8010  102.0690 C.3    76  VAL76       0.0022
     32  CG2       63.3420  -20.6620  100.1700 C.3    76  VAL76       0.0022
     33  N         64.7430  -28.8830  105.4860 N.3    88  PHE88      -0.1241
     34  CA        63.4290  -29.5080  105.4650 C.3    88  PHE88       0.1605
     35  C         63.7090  -30.9710  105.1300 C.2    88  PHE88       0.2264
     36  O         64.8050  -31.3010  104.6590 O.2    88  PHE88      -0.2867
     37  CB        62.5440  -28.9220  104.3800 C.3    88  PHE88       0.0534
     38  CG        62.1500  -27.5110  104.6080 C.ar   88  PHE88      -0.0203
     39  CD1       61.3860  -27.1630  105.7100 C.ar   88  PHE88      -0.0042
     40  CD2       62.4960  -26.5280  103.6840 C.ar   88  PHE88      -0.0042
     41  CE1       60.9620  -25.8470  105.8870 C.ar   88  PHE88      -0.0003
     42  CE2       62.0810  -25.2100  103.8490 C.ar   88  PHE88      -0.0003
     43  CZ        61.3110  -24.8680  104.9520 C.ar   88  PHE88      -0.0000
     44  N         59.1750  -28.6970  103.2310 N.3   116  GLY116     -0.1210
     45  CA        58.9320  -27.2800  103.0930 C.3   116  GLY116      0.1956
     46  C         57.8220  -26.8460  102.1800 C.2   116  GLY116      0.2612
     47  O         57.8150  -25.6940  101.7800 O.2   116  GLY116     -0.2717
     48  N         56.8910  -27.7300  101.8410 N.am  117  ASN117     -0.1960
     49  CA        55.7920  -27.3240  100.9740 C.3   117  ASN117      0.1819
     50  C         54.7850  -26.4800  101.7550 C.2   117  ASN117      0.2621
     51  O         54.6860  -26.5840  102.9690 O.2   117  ASN117     -0.2715
     52  CB        55.1170  -28.5260  100.2850 C.3   117  ASN117      0.1195
     53  CG        54.5460  -29.5240  101.2590 C.2   117  ASN117      0.2630
     54  OD1       53.3570  -29.4990  101.5810 O.2   117  ASN117     -0.2716
     55  ND2       55.3850  -30.4290  101.7210 N.am  117  ASN117     -0.0877
     56  N         54.0260  -25.6550  101.0510 N.am  118  TYR118     -0.1974
     57  CA        53.0710  -24.7810  101.6900 C.3   118  TYR118      0.1639
     58  C         52.0620  -25.4660  102.5550 C.2   118  TYR118      0.2290
     59  O         51.8010  -25.0000  103.6380 O.2   118  TYR118     -0.2864
     60  CB        52.3620  -23.9240  100.6680 C.3   118  TYR118      0.0560
     61  CG        53.2410  -22.8570  100.0650 C.ar  118  TYR118     -0.0198
     62  CD1       53.9550  -21.9650  100.8720 C.ar  118  TYR118     -0.0009
     63  CD2       53.3370  -22.7130   98.6690 C.ar  118  TYR118     -0.0009
     64  CE1       54.7350  -20.9500  100.2980 C.ar  118  TYR118      0.0417
     65  CE2       54.1090  -21.7130   98.0920 C.ar  118  TYR118      0.0417
     66  CZ        54.7970  -20.8420   98.9000 C.ar  118  TYR118      0.1957
     67  OH        55.5240  -19.8670   98.2880 O.3   118  TYR118     -0.2866
     68  N         59.8080  -17.5060  101.6790 N.3   167  ILE167     -0.1245
     69  CA        59.6310  -18.1980  100.4100 C.3   167  ILE167      0.1561
     70  C         58.8470  -17.3690   99.3570 C.2   167  ILE167      0.2260
     71  O         59.1970  -17.3630   98.1670 O.2   167  ILE167     -0.2867
     72  CB        58.9660  -19.5840  100.6310 C.3   167  ILE167      0.0252
     73  CG1       59.9180  -20.5290  101.3710 C.3   167  ILE167      0.0019
     74  CG2       58.5320  -20.1920   99.3210 C.3   167  ILE167      0.0019
     75  CD1       59.2000  -21.6970  102.0210 C.3   167  ILE167      0.0001
     76  N         61.7360  -16.7870   96.6770 N.3   171  SER171     -0.1202
     77  CA        61.5650  -17.7540   95.6100 C.3   171  SER171      0.2020
     78  C         60.4190  -17.4360   94.6630 C.2   171  SER171      0.2618
     79  O         60.5940  -17.4580   93.4410 O.2   171  SER171     -0.2717
     80  CB        61.3780  -19.1350   96.2020 C.3   171  SER171      0.2103
     81  OG        62.5450  -19.4420   96.9030 O.3   171  SER171     -0.2182
     82  N         59.2580  -17.1150   95.2260 N.am  172  GLU172     -0.1979
     83  CA        58.0970  -16.8200   94.4220 C.3   172  GLU172      0.1602
     84  C         58.2430  -15.5410   93.6320 C.2   172  GLU172      0.2287
     85  O         57.7710  -15.4420   92.5100 O.2   172  GLU172     -0.2864
     86  CB        56.8400  -16.8040   95.2810 C.3   172  GLU172      0.0415
     87  CG        56.5670  -18.1230   96.0240 C.3   172  GLU172      0.1163
     88  CD        56.1810  -19.2830   95.1180 C.2   172  GLU172      0.3649
     89  OE1       56.4230  -19.2310   93.8980 O.co2 172  GLU172     -0.2457
     90  OE2       55.6170  -20.2650   95.6250 O.co2 172  GLU172     -0.2457
     91  N         60.4630  -16.2010   90.6030 N.3   175  ARG175     -0.1245
     92  CA        59.8010  -16.9600   89.5560 C.3   175  ARG175      0.1563
     93  C         58.8160  -16.1430   88.7480 C.2   175  ARG175      0.2260
     94  O         58.6730  -16.3700   87.5550 O.2   175  ARG175     -0.2867
     95  CB        59.0330  -18.1220   90.1550 C.3   175  ARG175      0.0307
     96  CG        59.8670  -19.1210   90.8980 C.3   175  ARG175      0.0489
     97  CD        58.9310  -19.9960   91.7180 C.3   175  ARG175      0.2205
     98  NE        59.5860  -21.1930   92.2260 N.pl3 175  ARG175     -0.0865
     99  CZ        59.1170  -21.8960   93.2400 C.cat 175  ARG175      0.5346
    100  NH1       58.0100  -21.4900   93.8400 N.pl3 175  ARG175      0.1354
    101  NH2       59.7490  -22.9850   93.6550 N.pl3 175  ARG175      0.1354
    102  N         51.2090  -18.9880   92.4920 N.3   203  GLU203     -0.1231
    103  CA        52.1020  -19.8110   93.3020 C.3   203  GLU203      0.1699
    104  C         51.7370  -21.2650   93.1490 C.2   203  GLU203      0.2592
    105  O         52.6100  -22.1250   92.9920 O.2   203  GLU203     -0.2718
    106  CB        52.0090  -19.4230   94.7720 C.3   203  GLU203      0.0402
    107  CG        52.7070  -18.1270   95.1080 C.3   203  GLU203      0.1161
    108  CD        52.4810  -17.6740   96.5450 C.2   203  GLU203      0.3649
    109  OE1       51.7020  -18.3090   97.2580 O.co2 203  GLU203     -0.2457
    110  OE2       53.0710  -16.6620   96.9470 O.co2 203  GLU203     -0.2457
    111  N         50.4370  -21.5380   93.2000 N.am  204  ASN204     -0.1974
    112  CA        49.9320  -22.8940   93.0700 C.3   204  ASN204      0.1688
    113  C         50.1400  -23.4990   91.6830 C.2   204  ASN204      0.2292
    114  O         50.3040  -24.7140   91.5490 O.2   204  ASN204     -0.2864
    115  CB        48.4340  -22.9190   93.3370 C.3   204  ASN204      0.1181
    116  CG        48.0810  -22.6890   94.7820 C.2   204  ASN204      0.2629
    117  OD1       48.9260  -22.7380   95.6750 O.2   204  ASN204     -0.2716
    118  ND2       46.8010  -22.4560   95.0220 N.am  204  ASN204     -0.0877
    119  N         52.6230  -22.6800   89.2760 N.3   206  TRP206     -0.1227
    120  CA        53.9480  -22.5990   88.6510 C.3   206  TRP206      0.1737
    121  C         54.4090  -23.8240   87.8510 C.2   206  TRP206      0.2596
    122  O         54.9690  -23.6860   86.7630 O.2   206  TRP206     -0.2718
    123  CB        55.0210  -22.2100   89.6780 C.3   206  TRP206      0.0564
    124  CG        56.3720  -21.9940   89.0580 C.ar  206  TRP206      0.0003
    125  CD1       56.7370  -21.0030   88.1810 C.ar  206  TRP206      0.0946
    126  CD2       57.5560  -22.7410   89.3340 C.ar  206  TRP206      0.0152
    127  NE1       58.0860  -21.0790   87.9130 N.ar  206  TRP206     -0.2442
    128  CE2       58.6120  -22.1340   88.6070 C.ar  206  TRP206      0.0810
    129  CE3       57.8380  -23.8590   90.1420 C.ar  206  TRP206      0.0012
    130  CZ2       59.9270  -22.6050   88.6740 C.ar  206  TRP206      0.0191
    131  CZ3       59.1520  -24.3270   90.2080 C.ar  206  TRP206      0.0001
    132  CH2       60.1770  -23.6990   89.4790 C.ar  206  TRP206      0.0015
    133  N         54.1880  -25.0120   88.4050 N.am  207  GLY207     -0.1957
    134  CA        54.5640  -26.2580   87.7540 C.3   207  GLY207      0.1869
    135  C         53.6860  -26.6560   86.5750 C.2   207  GLY207      0.2309
    136  O         54.1740  -27.2240   85.6000 O.2   207  GLY207     -0.2863
@<TRIPOS>BOND
     1   136   135    2
     2   135   134    1
     3   122   121    2
     4    94    93    2
     5   134   133    1
     6   121   133   am
     7   121   120    1
     8   127   125   ar
     9   127   128   ar
    10   125   124   ar
    11   128   130   ar
    12   128   126   ar
    13   120   119    1
    14   120   123    1
    15   130   132   ar
    16    93    92    1
    17   124   126   ar
    18   124   123    1
    19   126   129   ar
    20   132   131   ar
    21    92    95    1
    22    92    91    1
    23   129   131   ar
    24    95    96    1
    25    96    97    1
    26     1     2    1
    27     2     5    1
    28     2     3    1
    29   114   113    2
    30   113   112    1
    31    97    98    1
    32     5     6    1
    33     3     4    2
    34     3     9   am
    35    98    99    2
    36   102   103    1
    37     9    10    1
    38    85    84    2
    39    13    10    1
    40   105   104    2
    41   112   111    1
    42   112   115    1
    43   104   111   am
    44   104   103    1
    45     6     7    2
    46     6     8   am
    47    99   101    1
    48    99   100    1
    49   103   106    1
    50    10    11    1
    51   115   116    1
    52    79    78    2
    53    84    83    1
    54    89    88   ar
    55    83    82    1
    56    83    86    1
    57    78    82   am
    58    78    77    1
    59    11    14   am
    60    11    12    2
    61   106   107    1
    62   116   118   am
    63   116   117    2
    64    14    15    1
    65   107   108    1
    66    88    90   ar
    67    88    87    1
    68    86    87    1
    69    77    80    1
    70    77    76    1
    71    80    81    1
    72    18    15    1
    73    18    19    1
    74    15    16    1
    75   108   110   ar
    76   108   109   ar
    77    21    19   ar
    78    21    23   ar
    79    19    20   ar
    80    17    16    2
    81    16    26   am
    82    23    24   ar
    83    65    63   ar
    84    65    66   ar
    85    71    70    2
    86    67    66    1
    87    20    22   ar
    88    26    27    1
    89    63    61   ar
    90    24    22   ar
    91    24    25    1
    92    66    64   ar
    93    74    72    1
    94    70    69    1
    95    27    28    1
    96    27    30    1
    97    61    60    1
    98    61    62   ar
    99    32    30    1
   100    52    49    1
   101    52    53    1
   102    64    62   ar
   103    69    72    1
   104    69    68    1
   105    28    29    2
   106    72    73    1
   107    60    57    1
   108    30    31    1
   109    49    50    1
   110    49    48    1
   111    56    57    1
   112    56    50   am
   113    53    54    2
   114    53    55   am
   115    73    75    1
   116    57    58    1
   117    50    51    2
   118    47    46    2
   119    48    46   am
   120    46    45    1
   121    58    59    2
   122    45    44    1
   123    40    42   ar
   124    40    38   ar
   125    42    43   ar
   126    37    38    1
   127    37    34    1
   128    38    39   ar
   129    36    35    2
   130    43    41   ar
   131    35    34    1
   132    34    33    1
   133    39    41   ar
