@<TRIPOS>MOLECULE
tmp/1igjB00.pdb
 94 90 0 0 0
SMALL
GASTEIGER

@<TRIPOS>ATOM
      1  N         40.2410   43.9150   68.9800 N.3    32  TYR32      -0.1241
      2  CA        39.7760   43.1870   67.8190 C.3    32  TYR32       0.1605
      3  C         39.3440   44.1560   66.7360 C.2    32  TYR32       0.2264
      4  O         38.7490   45.2130   67.0350 O.2    32  TYR32      -0.2867
      5  CB        38.5800   42.3470   68.1180 C.3    32  TYR32       0.0534
      6  CG        38.8230   41.2560   69.0930 C.ar   32  TYR32      -0.0201
      7  CD1       39.2610   40.0280   68.6510 C.ar   32  TYR32      -0.0009
      8  CD2       38.5490   41.4220   70.4360 C.ar   32  TYR32      -0.0009
      9  CE1       39.4110   38.9760   69.5310 C.ar   32  TYR32       0.0417
     10  CE2       38.6990   40.3770   71.3230 C.ar   32  TYR32       0.0417
     11  CZ        39.1260   39.1530   70.8650 C.ar   32  TYR32       0.1957
     12  OH        39.2630   38.0960   71.7320 O.3    32  TYR32      -0.2866
     13  N         37.0240   44.0360   63.6110 N.3    34  ASN34      -0.1240
     14  CA        35.7100   43.4460   63.3370 C.3    34  ASN34       0.1653
     15  C         35.3840   43.7220   61.8990 C.2    34  ASN34       0.2266
     16  O         35.7820   44.7710   61.3670 O.2    34  ASN34      -0.2867
     17  CB        34.5290   44.0770   64.0280 C.3    34  ASN34       0.1155
     18  CG        34.5430   43.9620   65.5160 C.2    34  ASN34       0.2627
     19  OD1       35.3790   44.5460   66.2170 O.2    34  ASN34      -0.2716
     20  ND2       33.5920   43.1830   65.9820 N.am   34  ASN34      -0.0877
     21  N         27.0670   40.2480   60.3570 N.3    46  TYR46      -0.1241
     22  CA        28.3410   40.2100   61.0760 C.3    46  TYR46       0.1605
     23  C         29.1140   39.2030   60.2750 C.2    46  TYR46       0.2264
     24  O         28.4910   38.2050   59.8690 O.2    46  TYR46      -0.2867
     25  CB        28.2520   39.6420   62.5280 C.3    46  TYR46       0.0534
     26  CG        29.5150   39.8540   63.3480 C.ar   46  TYR46      -0.0201
     27  CD1       29.9170   41.1390   63.6610 C.ar   46  TYR46      -0.0009
     28  CD2       30.3090   38.8320   63.8200 C.ar   46  TYR46      -0.0009
     29  CE1       31.0390   41.4080   64.4000 C.ar   46  TYR46       0.0417
     30  CE2       31.4430   39.0820   64.5640 C.ar   46  TYR46       0.0417
     31  CZ        31.7870   40.3740   64.8400 C.ar   46  TYR46       0.1957
     32  OH        32.9050   40.6880   65.5370 O.3    46  TYR46      -0.2866
     33  N         35.8390   38.5260   63.3720 N.3    49  TYR49      -0.1241
     34  CA        36.8050   39.4240   64.0260 C.3    49  TYR49       0.1605
     35  C         38.1610   38.7510   64.0790 C.2    49  TYR49       0.2264
     36  O         38.2260   37.5050   64.0500 O.2    49  TYR49      -0.2867
     37  CB        36.3570   39.7610   65.4990 C.3    49  TYR49       0.0534
     38  CG        36.2380   38.5380   66.3590 C.ar   49  TYR49      -0.0201
     39  CD1       37.3440   37.9560   66.9540 C.ar   49  TYR49      -0.0009
     40  CD2       35.0190   37.9170   66.4860 C.ar   49  TYR49      -0.0009
     41  CE1       37.2420   36.7740   67.6420 C.ar   49  TYR49       0.0417
     42  CE2       34.9070   36.7260   67.1720 C.ar   49  TYR49       0.0417
     43  CZ        36.0190   36.1570   67.7470 C.ar   49  TYR49       0.1957
     44  OH        35.8850   34.9660   68.4270 O.3    49  TYR49      -0.2866
     45  N         47.2280   38.8520   68.9430 N.3    54  SER54      -0.1217
     46  CA        47.0410   37.4640   69.3830 C.3    54  SER54       0.1889
     47  C         46.8600   36.4830   68.2190 C.2    54  SER54       0.2288
     48  O         47.4790   35.4100   68.1740 O.2    54  SER54      -0.2866
     49  CB        45.7870   37.2800   70.2800 C.3    54  SER54       0.2089
     50  OG        45.4520   38.3210   71.1870 O.3    54  SER54      -0.2183
     51  N         43.3020   35.8900   67.2430 N.3    56  VAL56      -0.1245
     52  CA        42.0810   35.1710   67.6260 C.3    56  VAL56       0.1561
     53  C         41.1020   35.5160   66.4960 C.2    56  VAL56       0.2260
     54  O         40.9000   36.6920   66.2020 O.2    56  VAL56      -0.2867
     55  CB        41.5050   35.6590   69.0030 C.3    56  VAL56       0.0252
     56  CG1       40.3340   34.7430   69.4070 C.3    56  VAL56       0.0019
     57  CG2       42.5900   35.6310   70.0880 C.3    56  VAL56       0.0019
     58  N         36.9660   47.1130   68.4070 N.3    98  SER98      -0.1217
     59  CA        36.3230   46.8690   69.6840 C.3    98  SER98       0.1889
     60  C         37.3750   46.6240   70.7610 C.2    98  SER98       0.2288
     61  O         38.4280   46.0180   70.5080 O.2    98  SER98      -0.2866
     62  CB        35.4370   45.6410   69.6120 C.3    98  SER98       0.2089
     63  OG        34.4550   45.7810   68.6060 O.3    98  SER98      -0.2183
     64  N         37.6380   45.9550   75.2640 N.3   100  GLY100     -0.1225
     65  CA        37.0520   45.7680   76.5780 C.3   100  GLY100      0.1811
     66  C         35.5990   45.3480   76.6180 C.2   100  GLY100      0.2280
     67  O         34.9270   45.1560   75.5980 O.2   100  GLY100     -0.2866
     68  N         31.6130   45.1330   74.4130 N.3   103  TRP103     -0.1227
     69  CA        31.2930   44.2040   73.3360 C.3   103  TRP103      0.1737
     70  C         30.4170   44.9510   72.3440 C.2   103  TRP103      0.2595
     71  O         29.3710   44.4800   71.9090 O.2   103  TRP103     -0.2718
     72  CB        30.6050   42.9290   73.9000 C.3   103  TRP103      0.0564
     73  CG        31.5500   42.0290   74.6490 C.ar  103  TRP103      0.0003
     74  CD1       32.8120   42.3450   75.0490 C.ar  103  TRP103      0.0946
     75  CD2       31.3080   40.7330   75.1950 C.ar  103  TRP103      0.0152
     76  NE1       33.3540   41.3560   75.8130 N.ar  103  TRP103     -0.2442
     77  CE2       32.4490   40.3500   75.9280 C.ar  103  TRP103      0.0810
     78  CE3       30.2460   39.8350   75.1650 C.ar  103  TRP103      0.0012
     79  CZ2       32.5720   39.1490   76.6180 C.ar  103  TRP103      0.0191
     80  CZ3       30.3650   38.6430   75.8470 C.ar  103  TRP103      0.0001
     81  CH2       31.5150   38.3140   76.5620 C.ar  103  TRP103      0.0015
     82  N         30.9040   46.1430   72.0000 N.am  104  ALA104     -0.1966
     83  CA        30.3030   47.0630   71.0530 C.3   104  ALA104      0.1728
     84  C         31.4210   47.5780   70.1680 C.2   104  ALA104      0.2616
     85  O         32.5080   47.7610   70.7330 O.2   104  ALA104     -0.2715
     86  CB        29.6960   48.1810   71.8020 C.3   104  ALA104      0.0334
     87  N         31.1870   47.8100   68.8690 N.am  105  MET105     -0.1977
     88  CA        32.2260   48.2800   67.9280 C.3   105  MET105      0.1605
     89  C         32.2030   49.7830   67.9710 C.2   105  MET105      0.2287
     90  O         31.2420   50.3700   67.4640 O.2   105  MET105     -0.2864
     91  CB        31.9490   47.8450   66.4890 C.3   105  MET105      0.0413
     92  CG        32.0940   46.3590   66.3420 C.3   105  MET105      0.0598
     93  SD        31.3460   45.6760   64.8590 S.3   105  MET105     -0.1393
     94  CE        29.6160   45.9950   65.1440 C.3   105  MET105      0.0692
@<TRIPOS>BOND
     1    24    23    2
     2    23    22    1
     3    21    22    1
     4    22    25    1
     5    16    15    2
     6    15    14    1
     7    25    26    1
     8    14    13    1
     9    14    17    1
    10    26    27   ar
    11    26    28   ar
    12    33    34    1
    13    27    29   ar
    14    28    30   ar
    15    34    35    1
    16    34    37    1
    17    17    18    1
    18    36    35    2
    19    29    31   ar
    20    30    31   ar
    21    31    32    1
    22    93    94    1
    23    93    92    1
    24    37    38    1
    25    18    20   am
    26    18    19    2
    27    54    53    2
    28    92    91    1
    29    38    40   ar
    30    38    39   ar
    31    40    42   ar
    32    91    88    1
    33    53    52    1
    34     3     4    2
    35     3     2    1
    36    39    41   ar
    37    42    43   ar
    38    51    52    1
    39    90    89    2
    40    52    55    1
    41    41    43   ar
    42    43    44    1
    43     2     5    1
    44     2     1    1
    45    88    89    1
    46    88    87    1
    47     5     6    1
    48    48    47    2
    49    47    46    1
    50    58    59    1
    51    63    62    1
    52     7     6   ar
    53     7     9   ar
    54    87    84   am
    55    45    46    1
    56    55    56    1
    57    55    57    1
    58     6     8   ar
    59    46    49    1
    60     9    11   ar
    61    62    59    1
    62    59    60    1
    63    84    85    2
    64    84    83    1
    65    49    50    1
    66     8    10   ar
    67    61    60    2
    68    11    10   ar
    69    11    12    1
    70    83    86    1
    71    83    82    1
    72    71    70    2
    73    82    70   am
    74    70    69    1
    75    69    72    1
    76    69    68    1
    77    72    73    1
    78    73    74   ar
    79    73    75   ar
    80    74    76   ar
    81    78    75   ar
    82    78    80   ar
    83    75    77   ar
    84    64    65    1
    85    67    66    2
    86    76    77   ar
    87    80    81   ar
    88    77    79   ar
    89    81    79   ar
    90    65    66    1
