@<TRIPOS>MOLECULE
tmp/1igrA01.pdb
 128 124 0 0 0
SMALL
GASTEIGER

@<TRIPOS>ATOM
      1  N         35.8100    7.4560   70.5630 N.3   104  ARG104     -0.1231
      2  CA        34.9200    7.8410   71.6050 C.3   104  ARG104      0.1694
      3  C         34.4660    9.2730   71.5400 C.2   104  ARG104      0.2592
      4  O         33.5530    9.7430   72.2230 O.2   104  ARG104     -0.2718
      5  CB        35.5680    7.6570   73.0180 C.3   104  ARG104      0.0321
      6  CG        36.3560    6.3750   73.1650 C.3   104  ARG104      0.0489
      7  CD        35.4250    5.1830   73.2480 C.3   104  ARG104      0.2205
      8  NE        34.5820    5.3200   74.4130 N.pl3 104  ARG104     -0.0865
      9  CZ        34.9000    4.8470   75.6210 C.cat 104  ARG104      0.5346
     10  NH1       36.0470    4.2140   75.8000 N.pl3 104  ARG104      0.1354
     11  NH2       33.9900    5.0700   76.5770 N.pl3 104  ARG104      0.1354
     12  N         34.9920   10.0650   70.6370 N.am  105  ASN105     -0.1960
     13  CA        34.5490   11.4500   70.5900 C.3   105  ASN105      0.1819
     14  C         34.9070   12.1490   69.3100 C.2   105  ASN105      0.2621
     15  O         36.0860   12.0670   69.0500 O.2   105  ASN105     -0.2715
     16  CB        35.1860   12.2910   71.6950 C.3   105  ASN105      0.1195
     17  CG        34.6870   13.6850   71.7770 C.2   105  ASN105      0.2630
     18  OD1       35.1910   14.5930   71.1680 O.2   105  ASN105     -0.2716
     19  ND2       33.6650   13.9320   72.6370 N.am  105  ASN105     -0.0877
     20  N         33.9690   12.6690   68.5760 N.am  106  ILE106     -0.1963
     21  CA        34.1290   13.5510   67.4690 C.3   106  ILE106      0.1727
     22  C         33.8030   14.9090   68.0090 C.2   106  ILE106      0.2617
     23  O         32.6280   15.1060   68.2430 O.2   106  ILE106     -0.2715
     24  CB        33.2390   13.1850   66.3070 C.3   106  ILE106      0.0290
     25  CG1       33.9280   12.0340   65.5580 C.3   106  ILE106      0.0022
     26  CG2       33.1320   14.4080   65.3740 C.3   106  ILE106      0.0023
     27  CD1       33.0550   11.2930   64.6430 C.3   106  ILE106      0.0001
     28  N         34.7190   15.7890   68.3500 N.am  107  THR107     -0.1937
     29  CA        34.5320   16.9830   69.1450 C.3   107  THR107      0.2028
     30  C         33.7280   17.9500   68.3320 C.2   107  THR107      0.2638
     31  O         33.3920   19.0600   68.8310 O.2   107  THR107     -0.2714
     32  CB        35.9020   17.6070   69.5790 C.3   107  THR107      0.1808
     33  OG1       36.8190   16.5030   69.7380 O.3   107  THR107     -0.2208
     34  CG2       35.9540   18.4110   70.8550 C.3   107  THR107      0.0379
     35  N         33.6690   17.7770   67.0190 N.am  108  ARG108     -0.2030
     36  CA        33.0460   18.8090   66.1800 C.3   108  ARG108      0.1283
     37  C         32.7010   18.3280   64.7840 C.3   108  ARG108      0.2036
     38  O         33.3790   17.3810   64.4300 O.3   108  ARG108     -0.2185
     39  CB        33.9650   20.0110   65.9510 C.3   108  ARG108      0.0281
     40  CG        33.1050   21.1740   65.5430 C.3   108  ARG108      0.0488
     41  CD        33.9170   22.4440   65.5290 C.3   108  ARG108      0.2205
     42  NE        33.5110   23.3760   64.4510 N.pl3 108  ARG108     -0.0865
     43  CZ        34.0450   23.6080   63.2660 C.cat 108  ARG108      0.5346
     44  NH1       35.1620   22.9290   62.8680 N.pl3 108  ARG108      0.1354
     45  NH2       33.4540   24.5430   62.4940 N.pl3 108  ARG108      0.1354
     46  N         25.4930    8.9310   69.1710 N.3   128  SER128     -0.1202
     47  CA        25.2010   10.0410   70.0810 C.3   128  SER128      0.2020
     48  C         26.1330    9.9750   71.2920 C.2   128  SER128      0.2619
     49  O         26.2120   10.8570   72.1340 O.2   128  SER128     -0.2717
     50  CB        23.7570   10.0420   70.6030 C.3   128  SER128      0.2103
     51  OG        23.4330    8.9170   71.4240 O.3   128  SER128     -0.2182
     52  N         26.6620    8.7920   71.5490 N.am  129  LEU129     -0.1965
     53  CA        27.7010    8.6070   72.5260 C.3   129  LEU129      0.1728
     54  C         29.0540    9.2260   72.1130 C.2   129  LEU129      0.2616
     55  O         29.6450   10.0010   72.8740 O.2   129  LEU129     -0.2715
     56  CB        27.9200    7.1320   72.7410 C.3   129  LEU129      0.0311
     57  CG        26.7950    6.3240   73.3710 C.3   129  LEU129      0.0022
     58  CD1       27.2920    5.0240   73.9750 C.3   129  LEU129      0.0001
     59  CD2       26.2370    7.1170   74.5600 C.3   129  LEU129      0.0001
     60  N         29.3160    9.2170   70.8070 N.am  130  ILE130     -0.1963
     61  CA        30.4800    9.7430   70.1440 C.3   130  ILE130      0.1727
     62  C         30.3050   11.1780   69.6790 C.2   130  ILE130      0.2616
     63  O         31.2240   11.9850   69.9660 O.2   130  ILE130     -0.2715
     64  CB        30.7930    8.8860   68.9010 C.3   130  ILE130      0.0290
     65  CG1       30.9690    7.4130   69.3470 C.3   130  ILE130      0.0022
     66  CG2       31.9920    9.4340   68.1760 C.3   130  ILE130      0.0023
     67  CD1       31.0530    6.4570   68.1650 C.3   130  ILE130      0.0001
     68  N         29.0890   11.4950   69.1930 N.am  131  LEU131     -0.1963
     69  CA        28.8950   12.8650   68.6510 C.3   131  LEU131      0.1728
     70  C         27.6610   13.5250   69.2850 C.2   131  LEU131      0.2616
     71  O         26.5990   12.8670   69.3110 O.2   131  LEU131     -0.2715
     72  CB        28.4990   12.6160   67.2590 C.3   131  LEU131      0.0311
     73  CG        28.8230   12.8050   65.8780 C.3   131  LEU131      0.0022
     74  CD1       29.1280   11.4050   65.3240 C.3   131  LEU131      0.0001
     75  CD2       27.6250   13.5810   65.3340 C.3   131  LEU131      0.0001
     76  N         27.7420   14.8110   69.5180 N.am  132  ASP132     -0.1971
     77  CA        26.6100   15.5420   70.0030 C.3   132  ASP132      0.1709
     78  C         25.5200   15.6590   68.9460 C.2   132  ASP132      0.2293
     79  O         24.4810   15.0320   68.9390 O.2   132  ASP132     -0.2864
     80  CB        27.0170   16.9440   70.3810 C.3   132  ASP132      0.1436
     81  CG        27.3490   17.1370   71.8340 C.2   132  ASP132      0.3671
     82  OD1       27.5360   16.1220   72.5210 O.co2 132  ASP132     -0.2456
     83  OD2       27.4130   18.3310   72.2080 O.co2 132  ASP132     -0.2456
     84  N         29.8420   13.0520   82.6240 N.3   191  LYS191     -0.1245
     85  CA        30.3590   13.5200   81.3640 C.3   191  LYS191      0.1561
     86  C         31.8680   13.2990   81.2700 C.2   191  LYS191      0.2260
     87  O         32.4860   13.9350   80.4150 O.2   191  LYS191     -0.2867
     88  CB        30.0580   15.0350   81.2140 C.3   191  LYS191      0.0271
     89  CG        28.5680   15.2880   81.0020 C.3   191  LYS191      0.0035
     90  CD        28.2070   16.7330   80.7230 C.3   191  LYS191      0.0206
     91  CE        26.7130   16.8060   80.4710 C.3   191  LYS191      0.1093
     92  NZ        26.3680   16.1820   79.1520 N.3   191  LYS191     -0.1314
     93  N         38.7380   15.2930   84.7110 N.3   203  PRO203     -0.2116
     94  CA        37.7800   15.9870   83.8790 C.3   203  PRO203      0.1372
     95  C         38.4400   16.5190   82.6070 C.2   203  PRO203      0.2244
     96  O         37.6980   17.0450   81.7310 O.2   203  PRO203     -0.2868
     97  CB        37.2480   17.1070   84.7420 C.3   203  PRO203      0.0268
     98  CG        38.1310   17.2100   85.9100 C.3   203  PRO203      0.0207
     99  CD        38.7580   15.8400   86.0820 C.3   203  PRO203      0.0892
    100  N         40.2320   13.5790   77.5200 N.3   206  LEU206     -0.1245
    101  CA        39.1690   13.4460   76.5330 C.3   206  LEU206      0.1561
    102  C         39.3100   12.1090   75.9120 C.2   206  LEU206      0.2260
    103  O         40.4000   11.5680   75.8130 O.2   206  LEU206     -0.2867
    104  CB        39.2660   14.5050   75.4620 C.3   206  LEU206      0.0270
    105  CG        38.2740   14.3650   74.3050 C.3   206  LEU206      0.0019
    106  CD1       36.8790   14.2430   74.8950 C.3   206  LEU206      0.0001
    107  CD2       38.3310   15.5990   73.4200 C.3   206  LEU206      0.0001
    108  N         40.5030   17.1330   76.3960 N.3   222  ARG222     -0.1231
    109  CA        39.2810   17.9060   76.3380 C.3   222  ARG222      0.1694
    110  C         39.5620   19.2860   75.7400 C.2   222  ARG222      0.2592
    111  O         38.7370   19.8450   75.0090 O.2   222  ARG222     -0.2718
    112  CB        38.6470   18.0740   77.7120 C.3   222  ARG222      0.0321
    113  CG        37.3140   18.6870   77.8540 C.3   222  ARG222      0.0489
    114  CD        36.5380   18.3380   79.0870 C.3   222  ARG222      0.2205
    115  NE        36.2720   16.9470   79.2690 N.pl3 222  ARG222     -0.0865
    116  CZ        35.5340   16.0800   78.6170 C.cat 222  ARG222      0.5346
    117  NH1       34.9250   16.5990   77.5330 N.pl3 222  ARG222      0.1354
    118  NH2       35.3420   14.7800   78.9010 N.pl3 222  ARG222      0.1354
    119  N         40.5560   19.9810   76.1900 N.am  223  HIS223     -0.1976
    120  CA        40.9880   21.2910   75.8210 C.3   223  HIS223      0.1656
    121  C         42.3630   21.2600   75.1220 C.2   223  HIS223      0.2291
    122  O         42.5060   20.7530   74.0030 O.2   223  HIS223     -0.2864
    123  CB        41.0570   22.2510   77.0110 C.3   223  HIS223      0.0771
    124  CG        39.7100   22.3440   77.6470 C.ar  223  HIS223      0.0820
    125  ND1       39.0820   21.3880   78.4250 N.ar  223  HIS223     -0.2267
    126  CD2       38.8200   23.3600   77.5560 C.ar  223  HIS223      0.1154
    127  CE1       37.8810   21.8150   78.7590 C.ar  223  HIS223      0.1986
    128  NE2       37.6810   23.0100   78.2320 N.ar  223  HIS223     -0.2212
@<TRIPOS>BOND
     1    45    43    1
     2    44    43    1
     3    43    42    2
     4    38    37    1
     5    42    41    1
     6    27    25    1
     7    37    36    1
     8    74    73    1
     9    75    73    1
    10    26    24    1
    11    41    40    1
    12    40    39    1
    13    25    24    1
    14    73    72    1
    15    39    36    1
    16    36    35    1
    17    24    21    1
    18    35    30   am
    19    72    69    1
    20    21    22    1
    21    21    20    1
    22    22    23    2
    23    22    28   am
    24    67    65    1
    25    66    64    1
    26    30    31    2
    27    30    29    1
    28    28    29    1
    29    20    14   am
    30    69    68    1
    31    69    70    1
    32    64    65    1
    33    64    61    1
    34    79    78    2
    35    78    77    1
    36    15    14    2
    37    29    32    1
    38    46    47    1
    39    68    62   am
    40    70    71    2
    41    70    76   am
    42    14    13    1
    43    76    77    1
    44    32    33    1
    45    32    34    1
    46    62    63    2
    47    62    61    1
    48    77    80    1
    49    47    50    1
    50    47    48    1
    51    61    60    1
    52    80    81    1
    53     1     2    1
    54    13    12    1
    55    13    16    1
    56    50    51    1
    57    12     3   am
    58    60    54   am
    59    18    17    2
    60    48    52   am
    61    48    49    2
    62     3     2    1
    63     3     4    2
    64    52    53    1
    65     2     5    1
    66    16    17    1
    67    17    19   am
    68    81    83   ar
    69    81    82   ar
    70    54    53    1
    71    54    55    2
    72    53    56    1
    73    56    57    1
    74     5     6    1
    75     6     7    1
    76     7     8    1
    77    57    58    1
    78    57    59    1
    79   107   105    1
    80   122   121    2
    81   105   106    1
    82   105   104    1
    83     8     9    2
    84   111   110    2
    85   121   120    1
    86   104   101    1
    87     9    10    1
    88     9    11    1
    89   110   119   am
    90   110   109    1
    91   103   102    2
    92   120   119    1
    93   120   123    1
    94   102   101    1
    95   109   108    1
    96   109   112    1
    97   101   100    1
    98   123   124    1
    99   117   116    1
   100   126   124   ar
   101   126   128   ar
   102   124   125   ar
   103   112   113    1
   104   113   114    1
   105   128   127   ar
   106   125   127   ar
   107   116   118    1
   108   116   115    2
   109   114   115    1
   110    92    91    1
   111    87    86    2
   112    91    90    1
   113    90    89    1
   114    89    88    1
   115    88    85    1
   116    86    85    1
   117    85    84    1
   118    96    95    2
   119    95    94    1
   120    94    93    1
   121    94    97    1
   122    93    99    1
   123    97    98    1
   124    98    99    1
