@<TRIPOS>MOLECULE
tmp/1igzA05.pdb
 92 84 0 0 0
SMALL
GASTEIGER

@<TRIPOS>ATOM
      1  N        234.4500  120.3360  -33.3930 N.3    13  GLN13      -0.1245
      2  CA       234.2310  119.4280  -32.2870 C.3    13  GLN13       0.1566
      3  C        233.2170  119.8980  -31.2790 C.2    13  GLN13       0.2260
      4  O        233.2970  119.5460  -30.1090 O.2    13  GLN13      -0.2867
      5  CB       235.5520  119.1460  -31.5840 C.3    13  GLN13       0.0367
      6  CG       236.5890  118.5140  -32.4680 C.3    13  GLN13       0.0905
      7  CD       237.7950  118.1100  -31.6790 C.2    13  GLN13       0.2608
      8  OE1      237.6730  117.6810  -30.5340 O.2    13  GLN13      -0.2717
      9  NE2      238.9740  118.2290  -32.2810 N.am   13  GLN13      -0.0878
     10  N        246.3420  131.0720  -34.0470 N.3    48  ARG48      -0.1245
     11  CA       246.7040  129.7020  -34.3470 C.3    48  ARG48       0.1563
     12  C        246.3530  129.3050  -35.7680 C.2    48  ARG48       0.2260
     13  O        247.2280  128.9600  -36.5560 O.2    48  ARG48      -0.2867
     14  CB       246.0340  128.7630  -33.3650 C.3    48  ARG48       0.0307
     15  CG       246.7040  127.4560  -33.2510 C.3    48  ARG48       0.0489
     16  CD       245.9540  126.5510  -32.3480 C.3    48  ARG48       0.2205
     17  NE       245.9760  127.0000  -30.9700 N.pl3  48  ARG48      -0.0865
     18  CZ       244.8880  127.1020  -30.2200 C.cat  48  ARG48       0.5346
     19  NH1      243.6990  126.8020  -30.7400 N.pl3  48  ARG48       0.1354
     20  NH2      244.9970  127.4390  -28.9370 N.pl3  48  ARG48       0.1354
     21  N        249.0240  128.5310  -38.7840 N.3    52  ARG52      -0.1231
     22  CA       249.1760  127.0900  -38.9960 C.3    52  ARG52       0.1679
     23  C        249.2830  126.7160  -40.4720 C.2    52  ARG52       0.2434
     24  O        248.3510  126.9520  -41.2540 O.2    52  ARG52      -0.2733
     25  CB       248.0070  126.3300  -38.3470 C.3    52  ARG52       0.0321
     26  CG       248.0780  124.8140  -38.5300 C.3    52  ARG52       0.0489
     27  CD       247.0230  124.0890  -37.6890 C.3    52  ARG52       0.2205
     28  NE       245.6790  124.1870  -38.2550 N.pl3  52  ARG52      -0.0865
     29  CZ       245.3120  123.6530  -39.4220 C.cat  52  ARG52       0.5346
     30  NH1      246.1870  122.9780  -40.1770 N.pl3  52  ARG52       0.1354
     31  NH2      244.0480  123.7560  -39.8180 N.pl3  52  ARG52       0.1354
     32  N        250.4330  126.1430  -40.8770 N.am   53  PRO53      -0.2729
     33  CA       250.6410  125.7350  -42.2710 C.3    53  PRO53       0.1401
     34  C        249.7760  124.5160  -42.6040 C.2    53  PRO53       0.2269
     35  O        249.2590  123.8400  -41.7100 O.2    53  PRO53      -0.2865
     36  CB       252.1300  125.4150  -42.3190 C.3    53  PRO53       0.0296
     37  CG       252.3910  124.9010  -40.9490 C.3    53  PRO53       0.0237
     38  CD       251.6380  125.8810  -40.0730 C.3    53  PRO53       0.0939
     39  N        253.6270  120.5110  -44.3320 N.3    58  ILE58      -0.1245
     40  CA       254.4160  119.8270  -43.3250 C.3    58  ILE58       0.1561
     41  C        254.9680  118.5200  -43.9150 C.2    58  ILE58       0.2260
     42  O        256.1730  118.2620  -43.8570 O.2    58  ILE58      -0.2867
     43  CB       253.5410  119.5190  -42.1040 C.3    58  ILE58       0.0252
     44  CG1      253.1170  120.8310  -41.4370 C.3    58  ILE58       0.0019
     45  CG2      254.2740  118.6010  -41.1420 C.3    58  ILE58       0.0019
     46  CD1      254.2650  121.6570  -40.8800 C.3    58  ILE58       0.0001
     47  N        256.8430  117.1690  -29.9950 N.3    84  LEU84      -0.1245
     48  CA       255.8380  117.9860  -30.6260 C.3    84  LEU84       0.1561
     49  C        254.9200  117.0380  -31.3890 C.2    84  LEU84       0.2260
     50  O        253.7020  117.0580  -31.2070 O.2    84  LEU84      -0.2867
     51  CB       256.5190  118.9800  -31.5660 C.3    84  LEU84       0.0270
     52  CG       255.6210  119.6920  -32.5660 C.3    84  LEU84       0.0019
     53  CD1      254.7790  120.7280  -31.8610 C.3    84  LEU84       0.0001
     54  CD2      256.4870  120.3150  -33.6270 C.3    84  LEU84       0.0001
     55  N        250.7670  116.8200  -30.0760 N.3    88  VAL88      -0.1245
     56  CA       249.8200  117.3820  -31.0330 C.3    88  VAL88       0.1561
     57  C        248.9370  116.3330  -31.6850 C.2    88  VAL88       0.2260
     58  O        247.7180  116.5040  -31.7670 O.2    88  VAL88      -0.2867
     59  CB       250.5250  118.1350  -32.1570 C.3    88  VAL88       0.0252
     60  CG1      249.5120  118.9940  -32.9090 C.3    88  VAL88       0.0019
     61  CG2      251.6630  118.9610  -31.5890 C.3    88  VAL88       0.0019
     62  N        246.5360  114.6830  -29.1130 N.3    91  ASN91      -0.1225
     63  CA       245.5570  115.5970  -28.5630 C.3    91  ASN91       0.1785
     64  C        244.2270  115.4790  -29.3200 C.2    91  ASN91       0.2597
     65  O        243.1890  115.9200  -28.8360 O.2    91  ASN91      -0.2718
     66  CB       246.1130  117.0310  -28.6340 C.3    91  ASN91       0.1169
     67  CG       245.2240  118.0570  -27.9270 C.2    91  ASN91       0.2627
     68  OD1      245.0200  117.9970  -26.7020 O.2    91  ASN91      -0.2716
     69  ND2      244.6930  119.0110  -28.7000 N.am   91  ASN91      -0.0877
     70  N        244.2510  114.8660  -30.4990 N.am   92  LEU92      -0.1980
     71  CA       243.0310  114.7260  -31.2910 C.3    92  LEU92       0.1596
     72  C        242.1280  113.5480  -30.9290 C.2    92  LEU92       0.2287
     73  O        241.0470  113.4000  -31.4910 O.2    92  LEU92      -0.2864
     74  CB       243.3730  114.6480  -32.7780 C.3    92  LEU92       0.0297
     75  CG       243.7220  115.9970  -33.3930 C.3    92  LEU92       0.0022
     76  CD1      244.0270  115.8300  -34.8650 C.3    92  LEU92       0.0001
     77  CD2      242.5660  116.9510  -33.1990 C.3    92  LEU92       0.0001
     78  N        237.0790  116.6950  -38.5190 N.3   438  ARG438     -0.1245
     79  CA       237.4520  116.2330  -37.1950 C.3   438  ARG438      0.1563
     80  C        238.9430  115.9580  -37.0560 C.2   438  ARG438      0.2260
     81  O        239.4980  116.0500  -35.9650 O.2   438  ARG438     -0.2867
     82  CB       236.6500  114.9900  -36.8370 C.3   438  ARG438      0.0307
     83  CG       236.8440  114.5190  -35.4110 C.3   438  ARG438      0.0489
     84  CD       236.4980  115.5990  -34.3880 C.3   438  ARG438      0.2205
     85  NE       237.5670  115.6840  -33.4010 N.pl3 438  ARG438     -0.0865
     86  CZ       237.9130  114.6940  -32.5950 C.cat 438  ARG438      0.5346
     87  NH1      237.2600  113.5580  -32.6540 N.pl3 438  ARG438      0.1354
     88  NH2      238.9350  114.8240  -31.7700 N.pl3 438  ARG438      0.1354
     89  N        241.3950  117.7330  -38.4090 N.3   440  GLY440     -0.1225
     90  CA       242.0870  118.9260  -38.8520 C.3   440  GLY440      0.1811
     91  C        242.3770  119.1270  -40.3230 C.2   440  GLY440      0.2280
     92  O        243.4310  119.6520  -40.6620 O.2   440  GLY440     -0.2866
@<TRIPOS>BOND
     1    39    40    1
     2    41    42    2
     3    41    40    1
     4    40    43    1
     5    34    33    1
     6    34    35    2
     7    36    33    1
     8    36    37    1
     9    33    32    1
    10    43    44    1
    11    43    45    1
    12    44    46    1
    13    24    23    2
    14    37    38    1
    15    32    23   am
    16    32    38    1
    17    92    91    2
    18    23    22    1
    19    91    90    1
    20    30    29    1
    21    31    29    1
    22    29    28    2
    23    22    21    1
    24    22    25    1
    25    90    89    1
    26    26    25    1
    27    26    27    1
    28    78    79    1
    29    28    27    1
    30    79    80    1
    31    79    82    1
    32    80    81    2
    33    82    83    1
    34    13    12    2
    35    12    11    1
    36    83    84    1
    37    76    75    1
    38    84    85    1
    39    11    10    1
    40    11    14    1
    41    54    52    1
    42    85    86    2
    43    75    77    1
    44    75    74    1
    45     1     2    1
    46    14    15    1
    47    15    16    1
    48    60    59    1
    49    74    71    1
    50    87    86    1
    51    86    88    1
    52    52    53    1
    53    52    51    1
    54     6     7    1
    55     6     5    1
    56    16    17    1
    57     2     5    1
    58     2     3    1
    59     9     7   am
    60    59    61    1
    61    59    56    1
    62    58    57    2
    63    57    56    1
    64     7     8    2
    65    51    48    1
    66    73    72    2
    67    49    50    2
    68    49    48    1
    69    71    72    1
    70    71    70    1
    71     3     4    2
    72    56    55    1
    73    17    18    2
    74    19    18    1
    75    48    47    1
    76    70    64   am
    77    18    20    1
    78    64    65    2
    79    64    63    1
    80    62    63    1
    81    69    67   am
    82    66    63    1
    83    66    67    1
    84    67    68    2
