@<TRIPOS>MOLECULE
tmp/1ih0A00.pdb
 153 143 0 0 0
SMALL
GASTEIGER

@<TRIPOS>ATOM
      1  N         52.2710   -0.9560    4.1630 N.3    14  PHE14      -0.1241
      2  CA        52.9580   -0.9850    2.8760 C.3    14  PHE14       0.1605
      3  C         52.8490   -2.3740    2.2540 C.2    14  PHE14       0.2264
      4  O         52.8180   -2.5230    1.0320 O.2    14  PHE14      -0.2867
      5  CB        54.4350   -0.6270    3.0530 C.3    14  PHE14       0.0534
      6  CG        54.9210    0.1210    1.8360 C.ar   14  PHE14      -0.0203
      7  CD1       54.9410   -0.5120    0.5870 C.ar   14  PHE14      -0.0042
      8  CD2       55.3520    1.4470    1.9550 C.ar   14  PHE14      -0.0042
      9  CE1       55.3910    0.1830   -0.5420 C.ar   14  PHE14      -0.0003
     10  CE2       55.8010    2.1420    0.8260 C.ar   14  PHE14      -0.0003
     11  CZ        55.8210    1.5100   -0.4230 C.ar   14  PHE14      -0.0000
     12  N         58.2610   -6.1560    1.6080 N.3    22  ILE22      -0.1245
     13  CA        57.8140   -5.2450    0.5580 C.3    22  ILE22       0.1561
     14  C         58.6990   -5.3870   -0.6750 C.2    22  ILE22       0.2260
     15  O         59.9000   -5.6340   -0.5680 O.2    22  ILE22      -0.2867
     16  CB        57.8640   -3.7970    1.0470 C.3    22  ILE22       0.0252
     17  CG1       56.8120   -3.5930    2.1390 C.3    22  ILE22       0.0019
     18  CG2       57.5750   -2.8520   -0.1200 C.3    22  ILE22       0.0019
     19  CD1       57.5060   -3.2600    3.4600 C.3    22  ILE22       0.0001
     20  N         55.6600   -1.3540   -4.4330 N.3    27  LEU27      -0.1245
     21  CA        56.0040    0.0590   -4.2990 C.3    27  LEU27       0.1561
     22  C         55.2340    0.8900   -5.3190 C.2    27  LEU27       0.2260
     23  O         54.4070    1.7280   -4.9610 O.2    27  LEU27      -0.2867
     24  CB        57.5050    0.2690   -4.5140 C.3    27  LEU27       0.0270
     25  CG        58.1530    0.6990   -3.1970 C.3    27  LEU27       0.0019
     26  CD1       58.7930   -0.5150   -2.5220 C.3    27  LEU27       0.0001
     27  CD2       59.2290    1.7510   -3.4770 C.3    27  LEU27       0.0001
     28  N         52.0160    1.4330   -4.6520 N.3    30  MET30      -0.1230
     29  CA        51.8550    2.3100   -3.4960 C.3    30  MET30       0.1702
     30  C         51.8520    3.7680   -3.9410 C.2    30  MET30       0.2592
     31  O         51.1010    4.5920   -3.4170 O.2    30  MET30      -0.2718
     32  CB        52.9970    2.0960   -2.5000 C.3    30  MET30       0.0401
     33  CG        52.4920    2.3550   -1.0790 C.3    30  MET30       0.0596
     34  SD        51.4890    0.9520   -0.5300 S.3    30  MET30      -0.1393
     35  CE        49.8710    1.6580   -0.9300 C.3    30  MET30       0.0692
     36  N         52.7010    4.0750   -4.9190 N.am   31  LEU31      -0.1980
     37  CA        52.7920    5.4370   -5.4360 C.3    31  LEU31       0.1596
     38  C         51.5590    5.7670   -6.2700 C.2    31  LEU31       0.2287
     39  O         50.8590    6.7460   -6.0110 O.2    31  LEU31      -0.2864
     40  CB        54.0430    5.5990   -6.3050 C.3    31  LEU31       0.0297
     41  CG        55.2610    5.0490   -5.5600 C.3    31  LEU31       0.0022
     42  CD1       56.5410    5.4940   -6.2720 C.3    31  LEU31       0.0001
     43  CD2       55.2670    5.5830   -4.1260 C.3    31  LEU31       0.0001
     44  N         48.9050    6.6630   -4.1710 N.3    34  THR34      -0.1203
     45  CA        49.0160    7.9410   -3.4700 C.3    34  THR34       0.1994
     46  C         49.3910    9.0630   -4.4370 C.2    34  THR34       0.2618
     47  O         49.5990   10.2060   -4.0310 O.2    34  THR34      -0.2717
     48  CB        50.0790    7.8590   -2.3730 C.3    34  THR34       0.1784
     49  OG1       50.0570    9.0540   -1.6050 O.3    34  THR34      -0.2211
     50  CG2       51.4590    7.6850   -3.0100 C.3    34  THR34       0.0376
     51  N         49.4760    8.7250   -5.7210 N.am   35  GLY35      -0.1956
     52  CA        49.8270    9.7150   -6.7350 C.3    35  GLY35       0.1869
     53  C         50.8300    9.1380   -7.7280 C.2    35  GLY35       0.2309
     54  O         52.0420    9.2500   -7.5450 O.2    35  GLY35      -0.2863
     55  N         55.1310    9.0930  -11.2240 N.3    38  ILE38      -0.1245
     56  CA        56.3380    9.2420  -10.4170 C.3    38  ILE38       0.1561
     57  C         57.5450    8.6960  -11.1760 C.2    38  ILE38       0.2260
     58  O         57.5870    7.5230  -11.5460 O.2    38  ILE38      -0.2867
     59  CB        56.1800    8.4940   -9.0870 C.3    38  ILE38       0.0252
     60  CG1       55.2840    9.3140   -8.1530 C.3    38  ILE38       0.0019
     61  CG2       57.5490    8.2900   -8.4300 C.3    38  ILE38       0.0019
     62  CD1       56.0650   10.5160   -7.6140 C.3    38  ILE38       0.0001
     63  N         62.3460    7.4150   -8.3700 N.3    42  ASP42      -0.1239
     64  CA        61.7220    7.4730   -7.0510 C.3    42  ASP42       0.1674
     65  C         61.3700    6.0720   -6.5660 C.2    42  ASP42       0.2266
     66  O         61.1240    5.8530   -5.3810 O.2    42  ASP42      -0.2867
     67  CB        60.4500    8.3200   -7.0980 C.3    42  ASP42       0.1410
     68  CG        60.6680    9.6080   -6.3120 C.2    42  ASP42       0.3668
     69  OD1       61.4790   10.4110   -6.7430 O.co2  42  ASP42      -0.2456
     70  OD2       60.0200    9.7730   -5.2910 O.co2  42  ASP42      -0.2456
     71  N         64.6450    4.9210   -4.1170 N.3    46  LEU46      -0.1231
     72  CA        64.1050    4.7350   -2.7730 C.3    46  LEU46       0.1693
     73  C         64.3800    3.3190   -2.2750 C.2    46  LEU46       0.2591
     74  O         64.8090    3.1170   -1.1390 O.2    46  LEU46      -0.2718
     75  CB        62.5950    4.9780   -2.7730 C.3    46  LEU46       0.0284
     76  CG        62.2220    5.8980   -1.6100 C.3    46  LEU46       0.0019
     77  CD1       60.9690    6.6960   -1.9750 C.3    46  LEU46       0.0001
     78  CD2       61.9450    5.0560   -0.3640 C.3    46  LEU46       0.0001
     79  N         64.1210    2.3410   -3.1370 N.am   47  MET47      -0.1979
     80  CA        64.3360    0.9420   -2.7760 C.3    47  MET47       0.1605
     81  C         65.8200    0.6620   -2.5530 C.2    47  MET47       0.2287
     82  O         66.2030   -0.0010   -1.5890 O.2    47  MET47      -0.2864
     83  CB        63.8180    0.0190   -3.8810 C.3    47  MET47       0.0413
     84  CG        63.5750   -1.3780   -3.3070 C.3    47  MET47       0.0598
     85  SD        61.9840   -1.4090   -2.4460 S.3    47  MET47      -0.1393
     86  CE        61.4040   -2.9920   -3.1040 C.3    47  MET47       0.0692
     87  N         66.9140    1.4130    0.5030 N.3    50  GLY50      -0.1225
     88  CA        66.0870    0.6610    1.4440 C.3    50  GLY50       0.1811
     89  C         66.2010   -0.8370    1.1870 C.2    50  GLY50       0.2280
     90  O         65.3470   -1.6200    1.6040 O.2    50  GLY50      -0.2866
     91  N         62.0710   -5.3460    1.1900 N.3    58  ILE58      -0.1245
     92  CA        62.4330   -4.8230    2.5050 C.3    58  ILE58       0.1561
     93  C         62.1230   -5.8560    3.5850 C.2    58  ILE58       0.2260
     94  O         61.2530   -6.7110    3.4140 O.2    58  ILE58      -0.2867
     95  CB        61.6570   -3.5390    2.8140 C.3    58  ILE58       0.0252
     96  CG1       61.2810   -2.8270    1.5070 C.3    58  ILE58       0.0019
     97  CG2       62.5230   -2.6140    3.6700 C.3    58  ILE58       0.0019
     98  CD1       62.5170   -2.1560    0.9000 C.3    58  ILE58       0.0001
     99  N         65.5580   -3.7160    7.9340 N.3    62  GLU62      -0.1231
    100  CA        65.8140   -2.5730    7.0660 C.3    62  GLU62       0.1699
    101  C         64.6110   -1.6390    7.0510 C.2    62  GLU62       0.2592
    102  O         64.7520   -0.4180    7.1200 O.2    62  GLU62      -0.2718
    103  CB        66.0960   -3.0450    5.6400 C.3    62  GLU62       0.0402
    104  CG        67.2470   -4.0510    5.6530 C.3    62  GLU62       0.1161
    105  CD        67.5170   -4.5320    4.2320 C.2    62  GLU62       0.3649
    106  OE1       66.8880   -4.0150    3.3240 O.co2  62  GLU62      -0.2457
    107  OE2       68.3480   -5.4110    4.0730 O.co2  62  GLU62      -0.2457
    108  N         63.4230   -2.2290    6.9610 N.am   63  PHE63      -0.1976
    109  CA        62.1940   -1.4440    6.9400 C.3    63  PHE63       0.1639
    110  C         62.1030   -0.5720    8.1880 C.2    63  PHE63       0.2290
    111  O         61.8790    0.6350    8.1050 O.2    63  PHE63      -0.2864
    112  CB        60.9720   -2.3630    6.8860 C.3    63  PHE63       0.0560
    113  CG        59.7160   -1.5280    6.8200 C.ar   63  PHE63      -0.0200
    114  CD1       59.0970   -1.1000    8.0010 C.ar   63  PHE63      -0.0042
    115  CD2       59.1720   -1.1790    5.5790 C.ar   63  PHE63      -0.0042
    116  CE1       57.9330   -0.3260    7.9400 C.ar   63  PHE63      -0.0003
    117  CE2       58.0070   -0.4050    5.5170 C.ar   63  PHE63      -0.0003
    118  CZ        57.3880    0.0220    6.6980 C.ar   63  PHE63      -0.0000
    119  N         64.4590    2.4270    7.5360 N.3    66  PHE66      -0.1227
    120  CA        63.9690    3.4130    6.5780 C.3    66  PHE66       0.1736
    121  C         62.6090    3.9430    7.0190 C.2    66  PHE66       0.2595
    122  O         62.2210    5.0610    6.6810 O.2    66  PHE66      -0.2718
    123  CB        63.8360    2.7950    5.1850 C.3    66  PHE66       0.0547
    124  CG        63.8540    3.8910    4.1470 C.ar   66  PHE66      -0.0202
    125  CD1       62.7160    4.6790    3.9420 C.ar   66  PHE66      -0.0042
    126  CD2       65.0100    4.1200    3.3910 C.ar   66  PHE66      -0.0042
    127  CE1       62.7330    5.6970    2.9810 C.ar   66  PHE66      -0.0003
    128  CE2       65.0270    5.1390    2.4300 C.ar   66  PHE66      -0.0003
    129  CZ        63.8880    5.9270    2.2250 C.ar   66  PHE66      -0.0000
    130  N         61.8920    3.1230    7.7820 N.am   67  MET67      -0.1979
    131  CA        60.5740    3.5100    8.2750 C.3    67  MET67       0.1605
    132  C         60.6810    4.0440    9.7000 C.2    67  MET67       0.2287
    133  O         60.0300    3.5450   10.6180 O.2    67  MET67      -0.2864
    134  CB        59.6250    2.3090    8.2590 C.3    67  MET67       0.0413
    135  CG        58.2650    2.7360    7.7040 C.3    67  MET67       0.0598
    136  SD        58.3290    2.7450    5.8950 S.3    67  MET67      -0.1393
    137  CE        56.7210    3.5260    5.6140 C.3    67  MET67       0.0692
    138  N         57.3980    7.0300    9.5550 N.3    70  VAL70      -0.1231
    139  CA        56.9890    7.7700    8.3650 C.3    70  VAL70       0.1692
    140  C         55.4680    7.8050    8.2620 C.2    70  VAL70       0.2591
    141  O         54.7750    6.9490    8.8100 O.2    70  VAL70      -0.2718
    142  CB        57.5580    7.1200    7.1030 C.3    70  VAL70       0.0266
    143  CG1       57.2390    7.9990    5.8920 C.3    70  VAL70       0.0020
    144  CG2       59.0740    6.9790    7.2430 C.3    70  VAL70       0.0020
    145  N         54.9580    8.8060    7.5520 N.am   71  GLU71      -0.1979
    146  CA        53.5140    8.9460    7.3820 C.3    71  GLU71       0.1602
    147  C         52.8450    9.2140    8.7260 C.2    71  GLU71       0.2287
    148  O         53.5570    9.3170    9.7110 O.2    71  GLU71      -0.2864
    149  CB        52.9210    7.6720    6.7770 C.3    71  GLU71       0.0415
    150  CG        53.7640    7.2370    5.5770 C.3    71  GLU71       0.1163
    151  CD        52.8500    6.7010    4.4790 C.2    71  GLU71       0.3649
    152  OE1       52.3470    7.5040    3.7100 O.co2  71  GLU71      -0.2457
    153  OE2       52.6660    5.4960    4.4240 O.co2  71  GLU71      -0.2457
@<TRIPOS>BOND
     1    58    57    2
     2    55    56    1
     3    57    56    1
     4    56    59    1
     5    59    61    1
     6    59    60    1
     7    63    64    1
     8    60    62    1
     9    53    54    2
    10    53    52    1
    11    67    64    1
    12    67    68    1
    13    64    65    1
    14    69    68   ar
    15    52    51    1
    16    65    66    2
    17    68    70   ar
    18    40    41    1
    19    40    37    1
    20    42    41    1
    21    38    39    2
    22    38    37    1
    23    51    46   am
    24    41    43    1
    25    37    36    1
    26    22    23    2
    27    22    21    1
    28    36    30   am
    29    28    29    1
    30    24    21    1
    31    24    25    1
    32    46    47    2
    33    46    45    1
    34    20    21    1
    35    44    45    1
    36    71    72    1
    37    30    29    1
    38    30    31    2
    39    83    84    1
    40    83    80    1
    41    29    32    1
    42    27    25    1
    43    45    48    1
    44    84    85    1
    45    25    26    1
    46    79    80    1
    47    79    73   am
    48    86    85    1
    49    50    48    1
    50    80    81    1
    51    75    72    1
    52    75    76    1
    53    72    73    1
    54    81    82    2
    55    32    33    1
    56    48    49    1
    57    73    74    2
    58    77    76    1
    59    76    78    1
    60    33    34    1
    61    35    34    1
    62    14    15    2
    63    14    13    1
    64     9    11   ar
    65     9     7   ar
    66    11    10   ar
    67    18    16    1
    68    87    88    1
    69    13    16    1
    70    13    12    1
    71     7     6   ar
    72    10     8   ar
    73    98    96    1
    74     4     3    2
    75    16    17    1
    76    89    88    1
    77    89    90    2
    78    91    92    1
    79    96    95    1
    80     6     8   ar
    81     6     5    1
    82    17    19    1
    83   129   128   ar
    84   129   127   ar
    85     3     2    1
    86   128   126   ar
    87    92    95    1
    88    92    93    1
    89    95    97    1
    90     2     5    1
    91     2     1    1
    92   127   125   ar
    93   106   105   ar
    94   126   124   ar
    95    94    93    2
    96   152   151   ar
    97   125   124   ar
    98   107   105   ar
    99   124   123    1
   100   105   104    1
   101   153   151   ar
   102   151   150    1
   103   123   120    1
   104   117   115   ar
   105   117   118   ar
   106   150   149    1
   107   115   113   ar
   108   137   136    1
   109   103   104    1
   110   103   100    1
   111   143   142    1
   112   136   135    1
   113   120   121    1
   114   120   119    1
   115   122   121    2
   116   118   116   ar
   117   149   146    1
   118   113   112    1
   119   113   114   ar
   120   112   109    1
   121   109   108    1
   122   109   110    1
   123   108   101   am
   124   121   130   am
   125   101   100    1
   126   101   102    2
   127   100    99    1
   128   142   144    1
   129   142   139    1
   130   146   145    1
   131   146   147    1
   132   145   140   am
   133   135   134    1
   134   130   131    1
   135   116   114   ar
   136   111   110    2
   137   134   131    1
   138   140   139    1
   139   140   141    2
   140   131   132    1
   141   139   138    1
   142   147   148    2
   143   132   133    2
