@<TRIPOS>MOLECULE
tmp/1ih8A00.pdb
 213 203 0 0 0
SMALL
GASTEIGER

@<TRIPOS>ATOM
      1  N          2.5620   65.6860   47.8360 N.3    43  LEU43      -0.1231
      2  CA         3.9590   65.2570   47.8050 C.3    43  LEU43       0.1693
      3  C          4.2110   64.0380   48.6880 C.2    43  LEU43       0.2593
      4  O          3.7010   63.9480   49.8060 O.2    43  LEU43      -0.2718
      5  CB         4.8790   66.3940   48.2640 C.3    43  LEU43       0.0284
      6  CG         6.3480   66.0200   48.4990 C.3    43  LEU43       0.0019
      7  CD1        7.0050   65.6710   47.1640 C.3    43  LEU43       0.0001
      8  CD2        7.0860   67.1810   49.1710 C.3    43  LEU43       0.0001
      9  N          5.0040   63.1050   48.1780 N.am   44  GLY44      -0.1942
     10  CA         5.3320   61.9210   48.9480 C.3    44  GLY44       0.2014
     11  C          6.3490   62.2790   50.0180 C.2    44  GLY44       0.2639
     12  O          7.3600   62.9320   49.7370 O.2    44  GLY44      -0.2714
     13  N          6.0770   61.8620   51.2490 N.am   45  ILE45      -0.1963
     14  CA         6.9690   62.1300   52.3760 C.3    45  ILE45       0.1727
     15  C          7.6880   60.8280   52.7150 C.2    45  ILE45       0.2616
     16  O          7.0850   59.9040   53.2500 O.2    45  ILE45      -0.2715
     17  CB         6.1580   62.6290   53.5900 C.3    45  ILE45       0.0290
     18  CG1        5.4220   63.9180   53.2110 C.3    45  ILE45       0.0022
     19  CG2        7.0660   62.8400   54.7870 C.3    45  ILE45       0.0023
     20  CD1        6.3370   65.0400   52.7310 C.3    45  ILE45       0.0001
     21  N          8.9770   60.7680   52.3940 N.am   46  SER46      -0.1950
     22  CA         9.7860   59.5650   52.6030 C.3    46  SER46       0.1924
     23  C         10.4990   59.4490   53.9450 C.2    46  SER46       0.2314
     24  O         10.9170   58.3590   54.3270 O.2    46  SER46      -0.2863
     25  CB        10.8550   59.4800   51.5230 C.3    46  SER46       0.2116
     26  OG        11.8340   60.4790   51.7520 O.3    46  SER46      -0.2180
     27  N         13.0650   61.3070   54.3600 N.3    48  GLY48      -0.1210
     28  CA        14.3690   61.8060   53.9570 C.3    48  GLY48       0.1956
     29  C         14.4190   63.3210   53.9240 C.2    48  GLY48       0.2612
     30  O         13.3790   63.9840   53.9340 O.2    48  GLY48      -0.2717
     31  N         15.6290   63.8710   53.8610 N.am   49  GLN49      -0.1965
     32  CA        15.8160   65.3180   53.8530 C.3    49  GLN49       0.1733
     33  C         15.0240   66.1150   52.8180 C.2    49  GLN49       0.2616
     34  O         14.3170   67.0610   53.1640 O.2    49  GLN49      -0.2715
     35  CB        17.2970   65.6670   53.6780 C.3    49  GLN49       0.0408
     36  CG        17.5560   67.1800   53.5970 C.3    49  GLN49       0.0908
     37  CD        19.0220   67.5260   53.4060 C.2    49  GLN49       0.2608
     38  OE1       19.8620   67.2050   54.2420 O.2    49  GLN49      -0.2717
     39  NE2       19.3340   68.1860   52.3000 N.am   49  GLN49      -0.0878
     40  N         15.1560   65.7430   51.5490 N.am   50  ASP50      -0.1957
     41  CA        14.4990   66.4850   50.4820 C.3    50  ASP50       0.1840
     42  C         12.9890   66.6510   50.5950 C.2    50  ASP50       0.2622
     43  O         12.4830   67.7630   50.4450 O.2    50  ASP50      -0.2715
     44  CB        14.8710   65.8820   49.1280 C.3    50  ASP50       0.1450
     45  CG        16.3750   65.8250   48.9120 C.2    50  ASP50       0.3671
     46  OD1       17.1220   66.4830   49.6720 O.co2  50  ASP50      -0.2456
     47  OD2       16.8100   65.1290   47.9760 O.co2  50  ASP50      -0.2456
     48  N         12.2650   65.5670   50.8630 N.am   51  SER51      -0.1950
     49  CA        10.8160   65.6700   50.9790 C.3    51  SER51       0.1924
     50  C         10.4050   66.3610   52.2800 C.2    51  SER51       0.2314
     51  O          9.3400   66.9800   52.3570 O.2    51  SER51      -0.2863
     52  CB        10.1550   64.2870   50.8580 C.3    51  SER51       0.2116
     53  OG        10.6470   63.3590   51.8110 O.3    51  SER51      -0.2180
     54  N          2.3630   59.1050   52.4170 N.3    78  ARG78      -0.1231
     55  CA         3.3570   58.0670   52.6760 C.3    78  ARG78       0.1694
     56  C          3.2360   57.0730   51.5260 C.2    78  ARG78       0.2592
     57  O          2.1340   56.6420   51.1980 O.2    78  ARG78      -0.2718
     58  CB         3.0620   57.3510   54.0000 C.3    78  ARG78       0.0321
     59  CG         3.3360   58.1700   55.2530 C.3    78  ARG78       0.0489
     60  CD         4.8270   58.3160   55.5270 C.3    78  ARG78       0.2205
     61  NE         5.4790   57.0130   55.6330 N.pl3  78  ARG78      -0.0865
     62  CZ         6.1970   56.4510   54.6670 C.cat  78  ARG78       0.5346
     63  NH1        6.3750   57.0770   53.5110 N.pl3  78  ARG78       0.1354
     64  NH2        6.7190   55.2500   54.8490 N.pl3  78  ARG78       0.1354
     65  N          4.3610   56.7150   50.9140 N.am   79  LEU79      -0.1966
     66  CA         4.3560   55.7770   49.7910 C.3    79  LEU79       0.1713
     67  C          5.2790   54.5840   50.0440 C.2    79  LEU79       0.2458
     68  O          6.2160   54.3250   49.2830 O.2    79  LEU79      -0.2730
     69  CB         4.7830   56.5020   48.5080 C.3    79  LEU79       0.0310
     70  CG         3.9450   57.7220   48.1060 C.3    79  LEU79       0.0022
     71  CD1        4.5960   58.4310   46.9240 C.3    79  LEU79       0.0001
     72  CD2        2.5320   57.2780   47.7460 C.3    79  LEU79       0.0001
     73  N          5.0230   53.8310   51.1210 N.am   80  PRO80      -0.2727
     74  CA         5.8780   52.6800   51.4050 C.3    80  PRO80       0.1402
     75  C          5.6560   51.5320   50.4310 C.2    80  PRO80       0.2269
     76  O          4.5700   51.3790   49.8740 O.2    80  PRO80      -0.2865
     77  CB         5.4590   52.2890   52.8180 C.3    80  PRO80       0.0296
     78  CG         3.9790   52.5470   52.7760 C.3    80  PRO80       0.0237
     79  CD         3.9240   53.9170   52.1000 C.3    80  PRO80       0.0939
     80  N          8.3800   49.7640   55.2640 N.3    84  GLN84      -0.1245
     81  CA         9.5300   50.6200   55.0040 C.3    84  GLN84       0.1566
     82  C         10.4480   50.5730   56.2160 C.2    84  GLN84       0.2260
     83  O         10.0220   50.8510   57.3350 O.2    84  GLN84      -0.2867
     84  CB         9.0820   52.0580   54.7460 C.3    84  GLN84       0.0367
     85  CG        10.2020   52.9660   54.2650 C.3    84  GLN84       0.0905
     86  CD         9.7020   54.3400   53.8660 C.2    84  GLN84       0.2608
     87  OE1        8.6570   54.4680   53.2200 O.2    84  GLN84      -0.2717
     88  NE2       10.4490   55.3770   54.2390 N.am   84  GLN84      -0.0878
     89  N          5.3300   55.4820   42.3170 N.3   139  ARG139     -0.1245
     90  CA         5.0890   56.5440   43.2970 C.3   139  ARG139      0.1563
     91  C          4.6570   57.8030   42.5460 C.2   139  ARG139      0.2260
     92  O          3.8510   58.5900   43.0390 O.2   139  ARG139     -0.2867
     93  CB         6.3440   56.8320   44.1330 C.3   139  ARG139      0.0307
     94  CG         6.6660   55.7310   45.1310 C.3   139  ARG139      0.0489
     95  CD         7.6410   56.1840   46.2080 C.3   139  ARG139      0.2205
     96  NE         7.8320   55.1420   47.2180 N.pl3 139  ARG139     -0.0865
     97  CZ         8.7400   54.1740   47.1430 C.cat 139  ARG139      0.5346
     98  NH1        9.5670   54.1040   46.1040 N.pl3 139  ARG139      0.1354
     99  NH2        8.8150   53.2650   48.1040 N.pl3 139  ARG139      0.1354
    100  N          1.0780   59.8010   43.1630 N.3   143  GLN143     -0.1245
    101  CA         0.9730   61.2220   43.4730 C.3   143  GLN143      0.1566
    102  C          0.1330   61.9460   42.4330 C.2   143  GLN143      0.2260
    103  O         -0.6830   62.7990   42.7730 O.2   143  GLN143     -0.2867
    104  CB         2.3690   61.8420   43.5910 C.3   143  GLN143      0.0367
    105  CG         3.0950   61.3520   44.8430 C.3   143  GLN143      0.0905
    106  CD         4.5730   61.6680   44.8370 C.2   143  GLN143      0.2608
    107  OE1        4.9960   62.7520   45.2370 O.2   143  GLN143     -0.2717
    108  NE2        5.3720   60.7140   44.3700 N.am  143  GLN143     -0.0878
    109  N         11.2050   67.0940   44.1950 N.3   157  THR157     -0.1218
    110  CA        12.2500   67.4000   45.1710 C.3   157  THR157      0.1862
    111  C         13.6390   67.6510   44.5960 C.2   157  THR157      0.2287
    112  O         14.6000   67.7990   45.3430 O.2   157  THR157     -0.2866
    113  CB        12.3700   66.2640   46.1990 C.3   157  THR157      0.1770
    114  OG1       12.8210   65.0740   45.5380 O.3   157  THR157     -0.2211
    115  CG2       11.0250   66.0010   46.8580 C.3   157  THR157      0.0375
    116  N         21.5040   66.9720   43.3900 N.3   162  GLU162     -0.1245
    117  CA        20.9780   65.7840   42.7310 C.3   162  GLU162      0.1567
    118  C         21.0600   65.9600   41.2120 C.2   162  GLU162      0.2260
    119  O         21.3750   65.0220   40.4760 O.2   162  GLU162     -0.2867
    120  CB        19.5220   65.5520   43.1390 C.3   162  GLU162      0.0388
    121  CG        18.7690   64.6510   42.1830 C.3   162  GLU162      0.1160
    122  CD        17.3470   64.3900   42.6220 C.2   162  GLU162      0.3649
    123  OE1       17.1590   63.6010   43.5720 O.co2 162  GLU162     -0.2457
    124  OE2       16.4260   64.9810   42.0180 O.co2 162  GLU162     -0.2457
    125  N         21.3260   61.7040   39.5600 N.3   167  PHE167     -0.1241
    126  CA        20.9230   60.5530   40.3540 C.3   167  PHE167      0.1605
    127  C         19.4700   60.6380   40.8140 C.2   167  PHE167      0.2264
    128  O         19.1830   61.0490   41.9370 O.2   167  PHE167     -0.2867
    129  CB        21.8370   60.3970   41.5740 C.3   167  PHE167      0.0534
    130  CG        21.7910   59.0280   42.1880 C.ar  167  PHE167     -0.0203
    131  CD1       22.2450   57.9210   41.4780 C.ar  167  PHE167     -0.0042
    132  CD2       21.2840   58.8390   43.4690 C.ar  167  PHE167     -0.0042
    133  CE1       22.1920   56.6420   42.0360 C.ar  167  PHE167     -0.0003
    134  CE2       21.2260   57.5650   44.0370 C.ar  167  PHE167     -0.0003
    135  CZ        21.6810   56.4650   43.3200 C.ar  167  PHE167     -0.0000
    136  N         10.7640   59.8610   40.4980 N.3   173  ASP173     -0.1239
    137  CA        10.8870   60.9700   41.4340 C.3   173  ASP173      0.1674
    138  C         11.2450   62.2270   40.6490 C.2   173  ASP173      0.2266
    139  O         11.1060   63.3390   41.1490 O.2   173  ASP173     -0.2867
    140  CB        11.9560   60.6900   42.5100 C.3   173  ASP173      0.1410
    141  CG        13.1680   59.9290   41.9740 C.2   173  ASP173      0.3668
    142  OD1       14.2720   60.1040   42.5270 O.co2 173  ASP173     -0.2456
    143  OD2       13.0250   59.1420   41.0220 O.co2 173  ASP173     -0.2456
    144  N         23.0810   70.1800   48.8500 N.3   186  LYS186     -0.1245
    145  CA        22.5910   69.3320   49.9290 C.3   186  LYS186      0.1561
    146  C         22.7410   69.9950   51.3010 C.2   186  LYS186      0.2260
    147  O         21.8000   69.9960   52.0930 O.2   186  LYS186     -0.2867
    148  CB        23.3050   67.9770   49.9100 C.3   186  LYS186      0.0271
    149  CG        22.5310   66.8590   50.6140 C.3   186  LYS186      0.0035
    150  CD        21.2340   66.5120   49.8690 C.3   186  LYS186      0.0206
    151  CE        20.5540   65.2970   50.5010 C.3   186  LYS186      0.1093
    152  NZ        19.3490   64.8230   49.7590 N.3   186  LYS186     -0.1314
    153  N         20.4850   61.6590   58.6580 N.3   205  LYS205     -0.1231
    154  CA        20.4790   60.3020   58.1190 C.3   205  LYS205      0.1693
    155  C         21.0750   60.3030   56.7130 C.2   205  LYS205      0.2592
    156  O         21.0340   61.3170   56.0200 O.2   205  LYS205     -0.2718
    157  CB        19.0520   59.7420   58.1020 C.3   205  LYS205      0.0285
    158  CG        18.0040   60.6730   57.5190 C.3   205  LYS205      0.0035
    159  CD        16.6020   60.1020   57.7220 C.3   205  LYS205      0.0206
    160  CE        16.4280   58.7910   56.9690 C.3   205  LYS205      0.1093
    161  NZ        15.2430   58.0380   57.4420 N.3   205  LYS205     -0.1314
    162  N         21.6430   59.1760   56.2950 N.am  206  GLU206     -0.1966
    163  CA        22.2500   59.0970   54.9700 C.3   206  GLU206      0.1718
    164  C         21.2230   59.1580   53.8440 C.2   206  GLU206      0.2458
    165  O         20.2150   58.4540   53.8670 O.2   206  GLU206     -0.2730
    166  CB        23.0690   57.8100   54.8200 C.3   206  GLU206      0.0428
    167  CG        24.4320   57.8120   55.5100 C.3   206  GLU206      0.1163
    168  CD        25.4000   58.8270   54.9240 C.2   206  GLU206      0.3649
    169  OE1       25.3890   59.0310   53.6920 O.co2 206  GLU206     -0.2457
    170  OE2       26.1890   59.4080   55.6990 O.co2 206  GLU206     -0.2457
    171  N         21.4610   60.0210   52.8490 N.am  207  PRO207     -0.2716
    172  CA        20.5210   60.1240   51.7290 C.3   207  PRO207      0.1536
    173  C         20.4520   58.7690   51.0360 C.2   207  PRO207      0.2599
    174  O         21.4720   58.1160   50.8290 O.2   207  PRO207     -0.2715
    175  CB        21.1590   61.1850   50.8390 C.3   207  PRO207      0.0310
    176  CG        21.8870   62.0590   51.8300 C.3   207  PRO207      0.0237
    177  CD        22.5190   61.0410   52.7450 C.3   207  PRO207      0.0939
    178  N         19.2500   58.3420   50.6850 N.am  208  THR208     -0.1937
    179  CA        19.0860   57.0660   50.0090 C.3   208  THR208      0.2028
    180  C         17.7720   57.0500   49.2440 C.2   208  THR208      0.2642
    181  O         16.7830   57.6370   49.6830 O.2   208  THR208     -0.2714
    182  CB        19.1220   55.8860   51.0190 C.3   208  THR208      0.1808
    183  OG1       18.8620   54.6540   50.3300 O.3   208  THR208     -0.2208
    184  CG2       18.0840   56.0820   52.1100 C.3   208  THR208      0.0379
    185  N         17.7820   56.4000   48.0860 N.am  209  ALA209     -0.1963
    186  CA        16.5910   56.2800   47.2530 C.3   209  ALA209      0.1728
    187  C         15.7890   55.0810   47.7470 C.2   209  ALA209      0.2616
    188  O         14.5850   54.9890   47.5120 O.2   209  ALA209     -0.2715
    189  CB        16.9900   56.0780   45.7880 C.3   209  ALA209      0.0334
    190  N         16.4770   54.1640   48.4270 N.am  210  ASP210     -0.1957
    191  CA        15.8680   52.9540   48.9820 C.3   210  ASP210      0.1840
    192  C         14.8700   52.2910   48.0300 C.2   210  ASP210      0.2621
    193  O         13.6940   52.1260   48.3610 O.2   210  ASP210     -0.2715
    194  CB        15.1850   53.2860   50.3160 C.3   210  ASP210      0.1450
    195  CG        14.6260   52.0550   51.0100 C.2   210  ASP210      0.3671
    196  OD1       15.2720   50.9860   50.9480 O.co2 210  ASP210     -0.2456
    197  OD2       13.5500   52.1580   51.6300 O.co2 210  ASP210     -0.2456
    198  N         15.3550   51.8920   46.8570 N.am  211  LEU211     -0.1977
    199  CA        14.5100   51.2620   45.8450 C.3   211  LEU211      0.1596
    200  C         14.7750   49.7710   45.6180 C.2   211  LEU211      0.2287
    201  O         13.9730   49.0910   44.9820 O.2   211  LEU211     -0.2864
    202  CB        14.6740   51.9950   44.5060 C.3   211  LEU211      0.0297
    203  CG        14.2750   53.4730   44.4590 C.3   211  LEU211      0.0022
    204  CD1       14.7230   54.0780   43.1390 C.3   211  LEU211      0.0001
    205  CD2       12.7690   53.6030   44.6400 C.3   211  LEU211      0.0001
    206  N         23.2380   57.0470   48.7320 N.3   220  ASP220     -0.1239
    207  CA        23.5740   57.6940   47.4640 C.3   220  ASP220      0.1674
    208  C         25.0870   57.6860   47.2610 C.2   220  ASP220      0.2266
    209  O         25.5850   57.3680   46.1800 O.2   220  ASP220     -0.2867
    210  CB        23.1220   59.1580   47.4520 C.3   220  ASP220      0.1410
    211  CG        21.6160   59.3220   47.3930 C.2   220  ASP220      0.3668
    212  OD1       20.8930   58.3140   47.2440 O.co2 220  ASP220     -0.2456
    213  OD2       21.1640   60.4830   47.4850 O.co2 220  ASP220     -0.2456
@<TRIPOS>BOND
     1   125   126    1
     2   126   127    1
     3   126   129    1
     4   119   118    2
     5   136   137    1
     6   138   139    2
     7   138   137    1
     8   127   128    2
     9   143   141   ar
    10   118   117    1
    11   137   140    1
    12   131   133   ar
    13   131   130   ar
    14   129   130    1
    15   141   140    1
    16   141   142   ar
    17   124   122   ar
    18   133   135   ar
    19   121   122    1
    20   121   120    1
    21   130   132   ar
    22    89    90    1
    23   102   103    2
    24   102   101    1
    25    91    92    2
    26    91    90    1
    27   122   123   ar
    28   117   120    1
    29   117   116    1
    30   204   203    1
    31   100   101    1
    32    90    93    1
    33   135   134   ar
    34   132   134   ar
    35   101   104    1
    36   104   105    1
    37    93    94    1
    38   109   110    1
    39   108   106   am
    40   203   202    1
    41   203   205    1
    42   202   199    1
    43   111   110    1
    44   111   112    2
    45   106   105    1
    46   106   107    2
    47   201   200    2
    48    94    95    1
    49   110   113    1
    50   114   113    1
    51   200   199    1
    52   189   186    1
    53   199   198    1
    54    98    97    1
    55   209   208    2
    56   113   115    1
    57    95    96    1
    58   198   192   am
    59    71    70    1
    60    97    96    2
    61    97    99    1
    62     7     6    1
    63   212   211   ar
    64   186   187    1
    65   186   185    1
    66   208   207    1
    67   211   210    1
    68   211   213   ar
    69   210   207    1
    70   207   206    1
    71   188   187    2
    72    72    70    1
    73   187   190   am
    74     2     1    1
    75     2     5    1
    76     2     3    1
    77    47    45   ar
    78   192   193    2
    79   192   191    1
    80   185   180   am
    81    70    69    1
    82     9     3   am
    83     9    10    1
    84     5     6    1
    85   190   191    1
    86     6     8    1
    87    69    66    1
    88     3     4    2
    89   144   145    1
    90    45    44    1
    91    45    46   ar
    92    10    11    1
    93   191   194    1
    94    44    41    1
    95   180   181    2
    96   180   179    1
    97    68    67    2
    98    12    11    2
    99   152   151    1
   100    66    67    1
   101    66    65    1
   102   150   151    1
   103   150   149    1
   104    76    75    2
   105   148   145    1
   106   148   149    1
   107   145   146    1
   108   179   178    1
   109   179   182    1
   110    11    13   am
   111    67    73   am
   112   194   195    1
   113   183   182    1
   114    75    74    1
   115    43    42    2
   116    41    42    1
   117    41    40    1
   118    42    48   am
   119   178   173   am
   120   174   173    2
   121   175   172    1
   122   175   176    1
   123    52    49    1
   124    52    53    1
   125    48    49    1
   126    65    56   am
   127   196   195   ar
   128    49    50    1
   129   195   197   ar
   130   182   184    1
   131   173   172    1
   132    73    74    1
   133    73    79    1
   134    57    56    2
   135    13    14    1
   136   146   147    2
   137    74    77    1
   138    25    26    1
   139    25    22    1
   140    56    55    1
   141    40    33   am
   142   172   171    1
   143   176   177    1
   144    79    78    1
   145    50    51    2
   146    39    37   am
   147    14    15    1
   148    14    17    1
   149    21    22    1
   150    21    15   am
   151    54    55    1
   152    22    23    1
   153    55    58    1
   154    15    16    2
   155    20    18    1
   156   177   171    1
   157    78    77    1
   158    33    34    2
   159    33    32    1
   160   171   164   am
   161    18    17    1
   162    87    86    2
   163    37    36    1
   164    37    38    2
   165    63    62    1
   166    17    19    1
   167    36    35    1
   168    35    32    1
   169   169   168   ar
   170   164   165    2
   171   164   163    1
   172    32    31    1
   173    31    29   am
   174    86    88   am
   175    86    85    1
   176    29    30    2
   177    29    28    1
   178    23    24    2
   179    28    27    1
   180    58    59    1
   181    85    84    1
   182    62    64    1
   183    62    61    2
   184    84    81    1
   185   166   163    1
   186   166   167    1
   187   168   167    1
   188   168   170   ar
   189   163   162    1
   190    81    80    1
   191    81    82    1
   192    59    60    1
   193    60    61    1
   194   156   155    2
   195    82    83    2
   196   162   155   am
   197   155   154    1
   198   160   161    1
   199   160   159    1
   200   158   159    1
   201   158   157    1
   202   157   154    1
   203   154   153    1
