@<TRIPOS>MOLECULE
tmp/1ihiB01.pdb
 179 175 0 0 0
SMALL
GASTEIGER

@<TRIPOS>ATOM
      1  N         -7.0570   53.1700  -15.0180 N.3    22  TYR22      -0.1241
      2  CA        -6.6340   53.6370  -16.3300 C.3    22  TYR22       0.1605
      3  C         -6.6160   52.5170  -17.3590 C.2    22  TYR22       0.2264
      4  O         -6.3110   51.3760  -17.0360 O.2    22  TYR22      -0.2867
      5  CB        -5.2380   54.2560  -16.2930 C.3    22  TYR22       0.0534
      6  CG        -4.6830   54.4660  -17.6910 C.ar   22  TYR22      -0.0201
      7  CD1       -5.1810   55.4730  -18.5100 C.ar   22  TYR22      -0.0009
      8  CD2       -3.7330   53.5940  -18.2280 C.ar   22  TYR22      -0.0009
      9  CE1       -4.7570   55.6060  -19.8280 C.ar   22  TYR22       0.0417
     10  CE2       -3.3040   53.7190  -19.5490 C.ar   22  TYR22       0.0417
     11  CZ        -3.8220   54.7270  -20.3440 C.ar   22  TYR22       0.1957
     12  OH        -3.4200   54.8560  -21.6560 O.3    22  TYR22      -0.2866
     13  N         -6.1240   52.0310  -22.0220 N.3    24  PRO24      -0.2102
     14  CA        -5.8740   52.7110  -23.2970 C.3    24  PRO24       0.1504
     15  C         -7.1840   53.2170  -23.9210 C.2    24  PRO24       0.2575
     16  O         -8.2690   52.7340  -23.5850 O.2    24  PRO24      -0.2718
     17  CB        -5.2050   51.6210  -24.1350 C.3    24  PRO24       0.0282
     18  CG        -4.5050   50.7790  -23.0960 C.3    24  PRO24       0.0208
     19  CD        -5.5550   50.6710  -22.0260 C.3    24  PRO24       0.0893
     20  N         -7.0860   54.1930  -24.8210 N.am   25  ALA25      -0.1980
     21  CA        -8.2690   54.7330  -25.4890 C.3    25  ALA25       0.1597
     22  C         -8.9430   53.6630  -26.3460 C.2    25  ALA25       0.2287
     23  O        -10.1510   53.7170  -26.5750 O.2    25  ALA25      -0.2864
     24  CB        -7.8820   55.9170  -26.3480 C.3    25  ALA25       0.0319
     25  N         -6.2740   63.0500  -16.0290 N.3    52  VAL52      -0.1231
     26  CA        -5.6930   62.6380  -17.3050 C.3    52  VAL52       0.1692
     27  C         -6.2470   61.3190  -17.7820 C.2    52  VAL52       0.2592
     28  O         -6.1800   61.0230  -18.9680 O.2    52  VAL52      -0.2718
     29  CB        -4.1450   62.4780  -17.2460 C.3    52  VAL52       0.0266
     30  CG1       -3.4560   63.7130  -17.8010 C.3    52  VAL52       0.0020
     31  CG2       -3.7030   62.2170  -15.8190 C.3    52  VAL52       0.0020
     32  N         -6.7800   60.5180  -16.8690 N.am   53  TYR53      -0.1962
     33  CA        -7.3260   59.2250  -17.2500 C.3    53  TYR53       0.1771
     34  C         -8.5920   59.4250  -18.0440 C.2    53  TYR53       0.2619
     35  O         -9.0670   58.5250  -18.7300 O.2    53  TYR53      -0.2715
     36  CB        -7.5960   58.3880  -16.0130 C.3    53  TYR53       0.0574
     37  CG        -6.3310   58.0220  -15.2900 C.ar   53  TYR53      -0.0198
     38  CD1       -6.3660   57.3170  -14.0820 C.ar   53  TYR53      -0.0009
     39  CD2       -5.0850   58.3710  -15.8170 C.ar   53  TYR53      -0.0009
     40  CE1       -5.1780   56.9680  -13.4150 C.ar   53  TYR53       0.0417
     41  CE2       -3.9060   58.0290  -15.1630 C.ar   53  TYR53       0.0417
     42  CZ        -3.9560   57.3300  -13.9660 C.ar   53  TYR53       0.1957
     43  OH        -2.7910   57.0020  -13.3280 O.3    53  TYR53      -0.2866
     44  N         -9.1400   60.6210  -17.9570 N.am   54  ASN54      -0.1972
     45  CA       -10.3400   60.9240  -18.6970 C.3    54  ASN54       0.1688
     46  C        -11.3700   59.8170  -18.4690 C.2    54  ASN54       0.2292
     47  O        -11.9130   59.2700  -19.4210 O.2    54  ASN54      -0.2864
     48  CB        -9.9750   61.0240  -20.1750 C.3    54  ASN54       0.1181
     49  CG       -11.1520   61.3970  -21.0490 C.2    54  ASN54       0.2629
     50  OD1      -11.0710   61.3020  -22.2740 O.2    54  ASN54      -0.2716
     51  ND2      -12.2470   61.8300  -20.4340 N.am   54  ASN54      -0.0877
     52  N         -3.4140   67.3450  -12.5620 N.3    84  TRP84      -0.1241
     53  CA        -2.5560   67.2250  -13.7360 C.3    84  TRP84       0.1605
     54  C         -1.6260   68.4120  -13.9740 C.2    84  TRP84       0.2264
     55  O         -1.9400   69.5610  -13.6390 O.2    84  TRP84      -0.2867
     56  CB        -3.3550   66.9520  -15.0050 C.3    84  TRP84       0.0550
     57  CG        -2.4350   66.6940  -16.1890 C.ar   84  TRP84       0.0003
     58  CD1       -2.3790   67.4030  -17.3580 C.ar   84  TRP84       0.0946
     59  CD2       -1.4180   65.6850  -16.2870 C.ar   84  TRP84       0.0152
     60  NE1       -1.3920   66.9020  -18.1700 N.ar   84  TRP84      -0.2442
     61  CE2       -0.7870   65.8480  -17.5380 C.ar   84  TRP84       0.0810
     62  CE3       -0.9800   64.6600  -15.4390 C.ar   84  TRP84       0.0012
     63  CZ2        0.2550   65.0290  -17.9590 C.ar   84  TRP84       0.0191
     64  CZ3        0.0520   63.8520  -15.8610 C.ar   84  TRP84       0.0001
     65  CH2        0.6590   64.0430  -17.1090 C.ar   84  TRP84       0.0015
     66  N          0.0560   64.7800   -9.6880 N.3   115  HIS115     -0.1241
     67  CA         0.4010   63.6800  -10.5790 C.3   115  HIS115      0.1621
     68  C          1.8560   63.5240  -11.0220 C.2   115  HIS115      0.2264
     69  O          2.4470   62.4620  -10.8520 O.2   115  HIS115     -0.2867
     70  CB        -0.4960   63.7330  -11.8140 C.3   115  HIS115      0.0745
     71  CG        -0.7460   62.3910  -12.4270 C.ar  115  HIS115      0.0817
     72  ND1       -1.9460   62.0530  -13.0170 N.ar  115  HIS115     -0.2268
     73  CD2        0.0440   61.2940  -12.5180 C.ar  115  HIS115      0.1154
     74  CE1       -1.8840   60.8030  -13.4400 C.ar  115  HIS115      0.1986
     75  NE2       -0.6890   60.3200  -13.1510 N.ar  115  HIS115     -0.2212
     76  N         -4.0650   68.3340  -22.5910 N.3   126  VAL126     -0.1231
     77  CA        -3.4020   67.7490  -21.4250 C.3   126  VAL126      0.1692
     78  C         -1.8780   67.6810  -21.6090 C.2   126  VAL126      0.2591
     79  O         -1.1050   67.6980  -20.6470 O.2   126  VAL126     -0.2718
     80  CB        -4.0050   66.3540  -21.1380 C.3   126  VAL126      0.0266
     81  CG1       -2.9560   65.4110  -20.6400 C.3   126  VAL126      0.0020
     82  CG2       -5.1180   66.4940  -20.1160 C.3   126  VAL126      0.0020
     83  N         -1.4550   67.6090  -22.8600 N.am  127  ILE127     -0.1980
     84  CA        -0.0420   67.5780  -23.1900 C.3   127  ILE127      0.1595
     85  C          0.1270   68.5070  -24.3930 C.2   127  ILE127      0.2287
     86  O          0.1770   68.0700  -25.5430 O.2   127  ILE127     -0.2864
     87  CB         0.4190   66.1360  -23.5090 C.3   127  ILE127      0.0276
     88  CG1        0.3420   65.3020  -22.2290 C.3   127  ILE127      0.0022
     89  CG2        1.8420   66.1220  -24.0580 C.3   127  ILE127      0.0022
     90  CD1        0.9410   63.9100  -22.3400 C.3   127  ILE127      0.0001
     91  N          1.4880   71.2290  -27.2390 N.3   129  LYS129     -0.1245
     92  CA         2.6040   71.1260  -28.1510 C.3   129  LYS129      0.1561
     93  C          2.7730   72.2990  -29.0830 C.2   129  LYS129      0.2260
     94  O          1.8040   72.9370  -29.5040 O.2   129  LYS129     -0.2867
     95  CB         2.5240   69.8380  -28.9450 C.3   129  LYS129      0.0271
     96  CG         2.6780   68.6300  -28.0690 C.3   129  LYS129      0.0035
     97  CD         2.8720   67.3850  -28.8780 C.3   129  LYS129      0.0206
     98  CE         2.9720   66.1870  -27.9560 C.3   129  LYS129      0.1093
     99  NZ         3.1910   64.8980  -28.6780 N.3   129  LYS129     -0.1314
    100  N          5.3070   60.2390   -8.4330 N.3   165  ASN165     -0.1240
    101  CA         6.4560   60.4320   -9.3140 C.3   165  ASN165      0.1653
    102  C          7.4610   61.4430   -8.7830 C.2   165  ASN165      0.2266
    103  O          8.2180   62.0470   -9.5380 O.2   165  ASN165     -0.2867
    104  CB         5.9910   60.8340  -10.7050 C.3   165  ASN165      0.1155
    105  CG         5.1340   59.7850  -11.3290 C.2   165  ASN165      0.2627
    106  OD1        5.5680   58.6520  -11.5240 O.2   165  ASN165     -0.2716
    107  ND2        3.8990   60.1400  -11.6350 N.am  165  ASN165     -0.0877
    108  N          2.5390   51.3750   -8.2840 N.3   214  TYR214     -0.1241
    109  CA         1.7320   51.2550   -9.4910 C.3   214  TYR214      0.1605
    110  C          2.5620   50.4580  -10.5100 C.2   214  TYR214      0.2264
    111  O          3.7960   50.3750  -10.3870 O.2   214  TYR214     -0.2867
    112  CB         1.3010   52.6380  -10.0320 C.3   214  TYR214      0.0534
    113  CG         2.3690   53.4920  -10.6890 C.ar  214  TYR214     -0.0201
    114  CD1        2.7510   54.7060  -10.1280 C.ar  214  TYR214     -0.0009
    115  CD2        2.9400   53.1250  -11.9120 C.ar  214  TYR214     -0.0009
    116  CE1        3.6660   55.5360  -10.7700 C.ar  214  TYR214      0.0417
    117  CE2        3.8570   53.9490  -12.5600 C.ar  214  TYR214      0.0417
    118  CZ         4.2130   55.1500  -11.9860 C.ar  214  TYR214      0.1957
    119  OH         5.1220   55.9620  -12.6160 O.3   214  TYR214     -0.2866
    120  N          0.5570   48.1040  -18.0110 N.3   220  HIS220     -0.1241
    121  CA        -0.2730   47.8530  -19.1920 C.3   220  HIS220      0.1621
    122  C          0.6020   47.6750  -20.4200 C.2   220  HIS220      0.2264
    123  O          0.1680   47.1280  -21.4290 O.2   220  HIS220     -0.2867
    124  CB        -1.2220   49.0310  -19.4300 C.3   220  HIS220      0.0745
    125  CG        -0.5470   50.3730  -19.3700 C.ar  220  HIS220      0.0817
    126  ND1       -0.1730   50.9700  -18.1820 N.ar  220  HIS220     -0.2268
    127  CD2       -0.1620   51.2230  -20.3510 C.ar  220  HIS220      0.1154
    128  CE1        0.4100   52.1290  -18.4340 C.ar  220  HIS220      0.1986
    129  NE2        0.4300   52.3060  -19.7440 N.ar  220  HIS220     -0.2212
    130  N          1.5690   49.8190  -22.6080 N.3   222  GLU222     -0.1245
    131  CA         1.0350   50.4890  -23.8060 C.3   222  GLU222      0.1567
    132  C          2.1840   50.9380  -24.7130 C.2   222  GLU222      0.2260
    133  O          3.0820   51.6740  -24.2880 O.2   222  GLU222     -0.2867
    134  CB         0.1610   51.6880  -23.4260 C.3   222  GLU222      0.0388
    135  CG        -0.9740   51.9360  -24.4140 C.3   222  GLU222      0.1160
    136  CD        -1.9830   52.9540  -23.9180 C.2   222  GLU222      0.3649
    137  OE1       -2.3240   52.9120  -22.7190 O.co2 222  GLU222     -0.2457
    138  OE2       -2.4470   53.7840  -24.7310 O.co2 222  GLU222     -0.2457
    139  N          4.0710   54.4020  -24.5070 N.3   225  TRP225     -0.1241
    140  CA         4.5690   54.6100  -23.1490 C.3   225  TRP225      0.1605
    141  C          5.5410   53.6020  -22.5650 C.2   225  TRP225      0.2264
    142  O          6.4390   53.9830  -21.7960 O.2   225  TRP225     -0.2867
    143  CB         3.3830   54.7770  -22.2080 C.3   225  TRP225      0.0550
    144  CG         2.4340   55.7650  -22.7490 C.ar  225  TRP225      0.0003
    145  CD1        1.2740   55.5040  -23.4120 C.ar  225  TRP225      0.0946
    146  CD2        2.6210   57.1850  -22.8060 C.ar  225  TRP225      0.0152
    147  NE1        0.7260   56.6710  -23.8890 N.ar  225  TRP225     -0.2442
    148  CE2        1.5320   57.7200  -23.5310 C.ar  225  TRP225      0.0810
    149  CE3        3.6060   58.0570  -22.3210 C.ar  225  TRP225      0.0012
    150  CZ2        1.3980   59.0910  -23.7840 C.ar  225  TRP225      0.0191
    151  CZ3        3.4740   59.4190  -22.5750 C.ar  225  TRP225      0.0001
    152  CH2        2.3760   59.9210  -23.3010 C.ar  225  TRP225      0.0015
    153  N          7.6570   52.7370  -16.9170 N.3   304  LEU304     -0.1245
    154  CA         7.2130   54.0580  -17.3450 C.3   304  LEU304      0.1561
    155  C          8.2560   55.1020  -17.0220 C.2   304  LEU304      0.2260
    156  O          8.4380   55.4590  -15.8570 O.2   304  LEU304     -0.2867
    157  CB         5.9040   54.4200  -16.6510 C.3   304  LEU304      0.0270
    158  CG         4.6640   53.7900  -17.2760 C.3   304  LEU304      0.0019
    159  CD1        3.5360   53.6890  -16.2580 C.3   304  LEU304      0.0001
    160  CD2        4.2580   54.6220  -18.4760 C.3   304  LEU304      0.0001
    161  N          8.2780   58.0180  -18.8680 N.3   306  LEU306     -0.1245
    162  CA         7.6770   59.2790  -19.2790 C.3   306  LEU306      0.1561
    163  C          8.7660   60.2650  -19.7110 C.2   306  LEU306      0.2260
    164  O          8.7510   61.4390  -19.3180 O.2   306  LEU306     -0.2867
    165  CB         6.8780   59.8980  -18.1230 C.3   306  LEU306      0.0270
    166  CG         6.0060   59.0150  -17.2290 C.3   306  LEU306      0.0019
    167  CD1        5.2410   59.9080  -16.2740 C.3   306  LEU306      0.0001
    168  CD2        5.0330   58.1910  -18.0550 C.3   306  LEU306      0.0001
    169  N          8.9210   63.9950  -21.0730 N.3   309  PHE309     -0.1241
    170  CA         8.9930   65.1450  -20.1820 C.3   309  PHE309      0.1605
    171  C         10.4280   65.2760  -19.6540 C.2   309  PHE309      0.2264
    172  O         10.6830   65.9740  -18.6700 O.2   309  PHE309     -0.2867
    173  CB         8.0270   64.9670  -18.9970 C.3   309  PHE309      0.0534
    174  CG         6.5870   64.7470  -19.3950 C.ar  309  PHE309     -0.0203
    175  CD1        6.0170   63.4880  -19.3090 C.ar  309  PHE309     -0.0042
    176  CD2        5.8050   65.8030  -19.8570 C.ar  309  PHE309     -0.0042
    177  CE1        4.6910   63.2810  -19.6780 C.ar  309  PHE309     -0.0003
    178  CE2        4.4780   65.6070  -20.2290 C.ar  309  PHE309     -0.0003
    179  CZ         3.9210   64.3440  -20.1390 C.ar  309  PHE309     -0.0000
@<TRIPOS>BOND
     1    94    93    2
     2    93    92    1
     3    95    92    1
     4    95    96    1
     5    97    96    1
     6    97    98    1
     7    99    98    1
     8    92    91    1
     9    23    22    2
    10    24    21    1
    11    22    21    1
    12    86    85    2
    13    21    20    1
    14    20    15   am
    15   138   136   ar
    16   132   133    2
    17   132   131    1
    18   139   140    1
    19   135   136    1
    20   135   134    1
    21    85    84    1
    22    17    14    1
    23    17    18    1
    24    89    87    1
    25    15    16    2
    26    15    14    1
    27   136   137   ar
    28   147   148   ar
    29   147   145   ar
    30   131   134    1
    31   131   130    1
    32   150   148   ar
    33   150   152   ar
    34   148   146   ar
    35    87    84    1
    36    87    88    1
    37   145   144   ar
    38   152   151   ar
    39    14    13    1
    40    84    83    1
    41   140   141    1
    42   140   143    1
    43    18    19    1
    44    83    78   am
    45   146   144   ar
    46   146   149   ar
    47   144   143    1
    48    76    77    1
    49   151   149   ar
    50   141   142    2
    51    90    88    1
    52    50    49    2
    53    19    13    1
    54    12    11    1
    55    78    77    1
    56    78    79    2
    57   123   122    2
    58    77    80    1
    59    80    81    1
    60    80    82    1
    61   169   170    1
    62    49    51   am
    63    49    48    1
    64   122   121    1
    65   127   129   ar
    66   127   125   ar
    67    11     9   ar
    68    11    10   ar
    69   178   179   ar
    70   178   176   ar
    71   170   171    1
    72   170   173    1
    73    48    45    1
    74   179   177   ar
    75   176   174   ar
    76     9     7   ar
    77   129   128   ar
    78   163   164    2
    79   163   162    1
    80   177   175   ar
    81   171   172    2
    82    10     8   ar
    83   124   125    1
    84   124   121    1
    85    47    46    2
    86   174   175   ar
    87   174   173    1
    88   125   126   ar
    89   162   161    1
    90   162   165    1
    91   121   120    1
    92    28    27    2
    93    35    34    2
    94    45    46    1
    95    45    44    1
    96     7     6   ar
    97   160   158    1
    98   128   126   ar
    99     8     6   ar
   100    60    61   ar
   101    60    58   ar
   102   165   166    1
   103   168   166    1
   104    34    44   am
   105    34    33    1
   106    63    61   ar
   107    63    65   ar
   108    30    29    1
   109    27    26    1
   110    27    32   am
   111     6     5    1
   112    61    59   ar
   113     3     4    2
   114     3     2    1
   115    58    57   ar
   116   154   155    1
   117   154   153    1
   118   154   157    1
   119    26    29    1
   120    26    25    1
   121   158   157    1
   122   158   159    1
   123    33    32    1
   124    33    36    1
   125    29    31    1
   126   166   167    1
   127    65    64   ar
   128   155   156    2
   129     2     5    1
   130     2     1    1
   131    59    57   ar
   132    59    62   ar
   133    57    56    1
   134    36    37    1
   135    64    62   ar
   136    39    37   ar
   137    39    41   ar
   138    37    38   ar
   139    41    42   ar
   140    56    53    1
   141    38    40   ar
   142    54    53    1
   143    54    55    2
   144    42    40   ar
   145    42    43    1
   146    53    52    1
   147    74    75   ar
   148    74    72   ar
   149    75    73   ar
   150    72    71   ar
   151   119   118    1
   152   117   118   ar
   153   117   115   ar
   154    73    71   ar
   155    71    70    1
   156   118   116   ar
   157   115   113   ar
   158    70    67    1
   159   107   105   am
   160   106   105    2
   161   105   104    1
   162    68    69    2
   163    68    67    1
   164   116   114   ar
   165   104   101    1
   166   113   114   ar
   167   113   112    1
   168    67    66    1
   169   110   111    2
   170   110   109    1
   171   112   109    1
   172   103   102    2
   173   109   108    1
   174   101   102    1
   175   101   100    1
