@<TRIPOS>MOLECULE
tmp/1ihjA00.pdb
 118 112 0 0 0
SMALL
GASTEIGER

@<TRIPOS>ATOM
      1  N          0.6480    9.4580    6.9510 N.3    11  LYS11      -0.1245
      2  CA        -0.7320    9.6220    7.3890 C.3    11  LYS11       0.1561
      3  C         -0.8930   10.5800    8.5570 C.2    11  LYS11       0.2260
      4  O         -1.9270   10.5830    9.2200 O.2    11  LYS11      -0.2867
      5  CB        -1.3680    8.2720    7.7430 C.3    11  LYS11       0.0271
      6  CG        -0.7470    7.5440    8.9200 C.3    11  LYS11       0.0035
      7  CD        -1.5610    6.3020    9.2570 C.3    11  LYS11       0.0206
      8  CE        -0.9370    5.5010   10.3850 C.3    11  LYS11       0.1093
      9  NZ        -1.6950    4.2430   10.6420 N.3    11  LYS11      -0.1314
     10  N         -5.9030    6.9250    8.3600 N.3    16  SER16      -0.1202
     11  CA        -5.2020    5.7920    7.7740 C.3    16  SER16       0.2020
     12  C         -4.5350    6.2460    6.4950 C.2    16  SER16       0.2619
     13  O         -4.6880    7.3950    6.0880 O.2    16  SER16      -0.2717
     14  CB        -6.1870    4.6650    7.4670 C.3    16  SER16       0.2103
     15  OG        -7.0500    5.0360    6.4080 O.3    16  SER16      -0.2182
     16  N         -3.8020    5.3450    5.8510 N.am   17  PHE17      -0.1961
     17  CA        -3.1270    5.7090    4.6190 C.3    17  PHE17       0.1771
     18  C         -4.1200    5.8230    3.4670 C.2    17  PHE17       0.2620
     19  O         -3.8940    6.5780    2.5210 O.2    17  PHE17      -0.2715
     20  CB        -2.0230    4.7010    4.3060 C.3    17  PHE17       0.0574
     21  CG        -0.8890    4.7310    5.2960 C.ar   17  PHE17      -0.0200
     22  CD1       -0.8220    3.8010    6.3240 C.ar   17  PHE17      -0.0042
     23  CD2        0.0940    5.7170    5.2150 C.ar   17  PHE17      -0.0042
     24  CE1        0.2130    3.8510    7.2640 C.ar   17  PHE17      -0.0003
     25  CE2        1.1320    5.7770    6.1500 C.ar   17  PHE17      -0.0003
     26  CZ         1.1900    4.8430    7.1730 C.ar   17  PHE17      -0.0000
     27  N         -5.2160    5.0740    3.5600 N.am   18  GLY18      -0.1940
     28  CA        -6.2560    5.1500    2.5460 C.3    18  GLY18       0.2014
     29  C         -6.1850    4.1730    1.3890 C.2    18  GLY18       0.2639
     30  O         -6.6950    4.4610    0.3040 O.2    18  GLY18      -0.2714
     31  N         -5.5490    3.0270    1.5940 N.am   19  ILE19      -0.1963
     32  CA        -5.4760    2.0520    0.5200 C.3    19  ILE19       0.1727
     33  C         -6.1350    0.7440    0.9070 C.2    19  ILE19       0.2616
     34  O         -6.0180    0.2850    2.0440 O.2    19  ILE19      -0.2715
     35  CB        -4.0180    1.7500    0.0960 C.3    19  ILE19       0.0290
     36  CG1       -3.2350    1.1580    1.2690 C.3    19  ILE19       0.0022
     37  CG2       -3.3460    3.0280   -0.4160 C.3    19  ILE19       0.0023
     38  CD1       -1.8710    0.6440    0.8790 C.3    19  ILE19       0.0001
     39  N         -6.8580    0.1620   -0.0430 N.am   20  CYS20      -0.1954
     40  CA        -7.4930   -1.1260    0.1720 C.3    20  CYS20       0.1843
     41  C         -6.8260   -2.0130   -0.8650 C.2    20  CYS20       0.2625
     42  O         -6.6740   -1.6210   -2.0260 O.2    20  CYS20      -0.2714
     43  CB        -8.9980   -1.0460   -0.0530 C.3    20  CYS20       0.0997
     44  SG        -9.9080   -0.0120    1.1480 S.3    20  CYS20      -0.0797
     45  N         -6.4160   -3.2000   -0.4450 N.am   21  ILE21      -0.1963
     46  CA        -5.6920   -4.0910   -1.3350 C.3    21  ILE21       0.1727
     47  C         -6.3160   -5.4590   -1.5210 C.2    21  ILE21       0.2616
     48  O         -7.1700   -5.8850   -0.7440 O.2    21  ILE21      -0.2715
     49  CB        -4.2520   -4.2980   -0.8200 C.3    21  ILE21       0.0290
     50  CG1       -4.2810   -5.0290    0.5280 C.3    21  ILE21       0.0022
     51  CG2       -3.5610   -2.9510   -0.6440 C.3    21  ILE21       0.0023
     52  CD1       -2.8960   -5.3260    1.1100 C.3    21  ILE21       0.0001
     53  N         -5.8720   -6.1460   -2.5660 N.am   22  VAL22      -0.1977
     54  CA        -6.3540   -7.4900   -2.8550 C.3    22  VAL22       0.1596
     55  C         -5.2700   -8.2810   -3.5630 C.2    22  VAL22       0.2287
     56  O         -4.3830   -7.7120   -4.1980 O.2    22  VAL22      -0.2864
     57  CB        -7.6040   -7.4870   -3.7790 C.3    22  VAL22       0.0276
     58  CG1       -8.7320   -6.7110   -3.1340 C.3    22  VAL22       0.0022
     59  CG2       -7.2470   -6.9080   -5.1450 C.3    22  VAL22       0.0022
     60  N         -6.8410   -1.9740   -4.7520 N.3    40  LYS40      -0.1245
     61  CA        -8.1980   -2.1760   -5.2580 C.3    40  LYS40       0.1561
     62  C         -9.0730   -0.9560   -5.0320 C.2    40  LYS40       0.2260
     63  O        -10.0720   -0.7610   -5.7210 O.2    40  LYS40      -0.2867
     64  CB        -8.8490   -3.3730   -4.5690 C.3    40  LYS40       0.0271
     65  CG       -10.1440   -3.8190   -5.2300 C.3    40  LYS40       0.0035
     66  CD       -11.1900   -4.2250   -4.2060 C.3    40  LYS40       0.0206
     67  CE       -11.8250   -3.0050   -3.5480 C.3    40  LYS40       0.1093
     68  NZ       -13.0800   -3.3600   -2.8170 N.3    40  LYS40      -0.1314
     69  N         -9.1970    5.6140   -0.5410 N.3    43  VAL43      -0.1245
     70  CA       -10.1280    6.4170    0.2460 C.3    43  VAL43       0.1561
     71  C        -10.0350    7.9020   -0.0960 C.2    43  VAL43       0.2260
     72  O         -8.9600    8.4910   -0.0440 O.2    43  VAL43      -0.2867
     73  CB        -9.8550    6.2580    1.7560 C.3    43  VAL43       0.0252
     74  CG1      -10.8330    7.1200    2.5530 C.3    43  VAL43       0.0019
     75  CG2       -9.9810    4.7910    2.1480 C.3    43  VAL43       0.0019
     76  N         -2.9220  -10.8070    1.8920 N.3    73  GLU73      -0.1231
     77  CA        -3.3990   -9.4460    2.1170 C.3    73  GLU73       0.1699
     78  C         -3.2140   -9.0580    3.5810 C.2    73  GLU73       0.2592
     79  O         -2.7340   -7.9690    3.8880 O.2    73  GLU73      -0.2718
     80  CB        -4.8760   -9.3060    1.7450 C.3    73  GLU73       0.0402
     81  CG        -5.1770   -9.5400    0.2730 C.3    73  GLU73       0.1161
     82  CD        -5.6580  -10.9490   -0.0090 C.2    73  GLU73       0.3649
     83  OE1       -5.0720  -11.9000    0.5420 O.co2  73  GLU73      -0.2457
     84  OE2       -6.6190  -11.1030   -0.7920 O.co2  73  GLU73      -0.2457
     85  N         -3.5840   -9.9580    4.4860 N.am   74  GLN74      -0.1979
     86  CA        -3.4580   -9.6710    5.9100 C.3    74  GLN74       0.1601
     87  C         -2.0260   -9.3640    6.3250 C.2    74  GLN74       0.2287
     88  O         -1.7930   -8.4940    7.1670 O.2    74  GLN74      -0.2864
     89  CB        -3.9830  -10.8420    6.7410 C.3    74  GLN74       0.0394
     90  CG        -4.1080  -10.5060    8.2120 C.3    74  GLN74       0.0908
     91  CD        -5.0080   -9.3090    8.4460 C.2    74  GLN74       0.2608
     92  OE1       -6.1710   -9.3050    8.0390 O.2    74  GLN74      -0.2717
     93  NE2       -4.4760   -8.2870    9.1030 N.am   74  GLN74      -0.0878
     94  N         -1.2780   -5.8460    5.4510 N.3    77  ILE77      -0.1245
     95  CA        -1.9940   -4.9500    6.3580 C.3    77  ILE77       0.1561
     96  C         -1.2750   -4.8940    7.7060 C.2    77  ILE77       0.2260
     97  O         -1.1120   -3.8160    8.2810 O.2    77  ILE77      -0.2867
     98  CB        -3.4550   -5.4040    6.5830 C.3    77  ILE77       0.0252
     99  CG1       -4.2520   -5.2620    5.2820 C.3    77  ILE77       0.0019
    100  CG2       -4.1010   -4.5710    7.6830 C.3    77  ILE77       0.0019
    101  CD1       -4.2480   -3.8510    4.6940 C.3    77  ILE77       0.0001
    102  N          1.7540   -2.7070    7.4460 N.3    80  ILE80      -0.1231
    103  CA         1.4000   -1.2960    7.4210 C.3    80  ILE80       0.1692
    104  C          1.0540   -0.7810    8.8160 C.2    80  ILE80       0.2591
    105  O          1.4790    0.3070    9.2020 O.2    80  ILE80      -0.2718
    106  CB         0.1960   -1.0340    6.4950 C.3    80  ILE80       0.0266
    107  CG1        0.5600   -1.3910    5.0540 C.3    80  ILE80       0.0019
    108  CG2       -0.2140    0.4410    6.5730 C.3    80  ILE80       0.0020
    109  CD1       -0.6100   -1.2760    4.0870 C.3    80  ILE80       0.0001
    110  N          0.2870   -1.5630    9.5710 N.am   81  LYS81      -0.1980
    111  CA        -0.1120   -1.1530   10.9150 C.3    81  LYS81       0.1596
    112  C          1.0630   -1.1050   11.8810 C.2    81  LYS81       0.2287
    113  O          1.0200   -0.4050   12.8940 O.2    81  LYS81      -0.2864
    114  CB        -1.2050   -2.0820   11.4500 C.3    81  LYS81       0.0298
    115  CG        -2.5250   -1.9390   10.7070 C.3    81  LYS81       0.0038
    116  CD        -3.6250   -2.8050   11.3050 C.3    81  LYS81       0.0206
    117  CE        -4.9520   -2.5450   10.5980 C.3    81  LYS81       0.1093
    118  NZ        -6.0750   -3.3460   11.1610 N.3    81  LYS81      -0.1314
@<TRIPOS>BOND
     1    63    62    2
     2    61    62    1
     3    61    60    1
     4    61    64    1
     5    65    64    1
     6    65    66    1
     7    59    57    1
     8    66    67    1
     9    56    55    2
    10    57    58    1
    11    57    54    1
    12    55    54    1
    13    67    68    1
    14    54    53    1
    15    53    47   am
    16    42    41    2
    17    47    46    1
    18    47    48    2
    19    46    49    1
    20    46    45    1
    21    41    45   am
    22    41    40    1
    23    49    51    1
    24    49    50    1
    25    84    82   ar
    26    69    70    1
    27    37    35    1
    28    71    72    2
    29    71    70    1
    30    43    40    1
    31    43    44    1
    32    39    40    1
    33    39    33   am
    34    82    81    1
    35    82    83   ar
    36    35    32    1
    37    35    36    1
    38    70    73    1
    39    81    80    1
    40    30    29    2
    41    32    33    1
    42    32    31    1
    43    50    52    1
    44    38    36    1
    45    33    34    2
    46    29    31   am
    47    29    28    1
    48    80    77    1
    49    73    75    1
    50    73    74    1
    51    76    77    1
    52    77    78    1
    53    19    18    2
    54    28    27    1
    55    18    27   am
    56    18    17    1
    57    78    79    2
    58    78    85   am
    59   109   107    1
    60    20    17    1
    61    20    21    1
    62    85    86    1
    63    17    16    1
    64   101    99    1
    65   107   106    1
    66    23    21   ar
    67    23    25   ar
    68    99    98    1
    69    21    22   ar
    70    94    95    1
    71    16    12   am
    72    86    87    1
    73    86    89    1
    74    13    12    2
    75    25    26   ar
    76    22    24   ar
    77    87    88    2
    78    95    98    1
    79    95    96    1
    80    15    14    1
    81   106   108    1
    82   106   103    1
    83    12    11    1
    84    98   100    1
    85    89    90    1
    86     1     2    1
    87    26    24   ar
    88     2     5    1
    89     2     3    1
    90   103   102    1
    91   103   104    1
    92    14    11    1
    93    96    97    2
    94     5     6    1
    95    11    10    1
    96    92    91    2
    97    90    91    1
    98    91    93   am
    99     3     4    2
   100   104   105    2
   101   104   110   am
   102     6     7    1
   103     7     8    1
   104   110   111    1
   105     8     9    1
   106   117   118    1
   107   117   116    1
   108   115   116    1
   109   115   114    1
   110   111   114    1
   111   111   112    1
   112   112   113    2
