@<TRIPOS>MOLECULE
tmp/1ihyB00.pdb
 221 218 0 0 0
SMALL
GASTEIGER

@<TRIPOS>ATOM
      1  N          6.5700   18.3040   14.0380 N.3     6  ASN6       -0.1225
      2  CA         5.6910   17.1530   14.0790 C.3     6  ASN6        0.1785
      3  C          6.5000   15.9750   14.6170 C.2     6  ASN6        0.2598
      4  O          7.4310   15.4930   13.9700 O.2     6  ASN6       -0.2718
      5  CB         5.1650   16.8360   12.6810 C.3     6  ASN6        0.1169
      6  CG         4.1320   15.7180   12.6820 C.2     6  ASN6        0.2627
      7  OD1        3.8370   15.1180   11.6430 O.2     6  ASN6       -0.2716
      8  ND2        3.5700   15.4400   13.8450 N.am    6  ASN6       -0.0877
      9  N          6.1410   15.5130   15.8100 N.am    7  GLY7       -0.1942
     10  CA         6.8510   14.4060   16.4230 C.3     7  GLY7        0.2014
     11  C          7.7140   14.9220   17.5590 C.2     7  GLY7        0.2639
     12  O          8.4880   15.8590   17.3580 O.2     7  GLY7       -0.2714
     13  N          7.6050   14.3280   18.7460 N.am    8  PHE8       -0.1959
     14  CA         8.3920   14.8000   19.8740 C.3     8  PHE8        0.1771
     15  C          9.4040   13.7650   20.3420 C.2     8  PHE8        0.2620
     16  O          9.5330   13.5160   21.5320 O.2     8  PHE8       -0.2715
     17  CB         7.4510   15.1860   21.0220 C.3     8  PHE8        0.0574
     18  CG         7.8810   16.4000   21.7970 C.ar    8  PHE8       -0.0200
     19  CD1        8.1300   17.5970   21.1460 C.ar    8  PHE8       -0.0042
     20  CD2        8.0160   16.3520   23.1840 C.ar    8  PHE8       -0.0042
     21  CE1        8.5130   18.7380   21.8640 C.ar    8  PHE8       -0.0003
     22  CE2        8.3960   17.4840   23.9040 C.ar    8  PHE8       -0.0003
     23  CZ         8.6430   18.6790   23.2400 C.ar    8  PHE8       -0.0000
     24  N         10.1300   13.1700   19.4030 N.am    9  GLY9       -0.1940
     25  CA        11.1420   12.1810   19.7500 C.3     9  GLY9        0.2014
     26  C         12.4850   12.8380   20.0330 C.2     9  GLY9        0.2639
     27  O         12.5400   14.0460   20.2580 O.2     9  GLY9       -0.2714
     28  N         13.5710   12.0670   20.0270 N.am   10  ARG10      -0.1963
     29  CA        14.8770   12.6460   20.3020 C.3    10  ARG10       0.1729
     30  C         15.1150   13.8630   19.4430 C.2    10  ARG10       0.2616
     31  O         15.5250   14.9050   19.9390 O.2    10  ARG10      -0.2715
     32  CB        16.0030   11.6380   20.0730 C.3    10  ARG10       0.0348
     33  CG        16.1730   10.5860   21.1670 C.3    10  ARG10       0.0492
     34  CD        16.4790   11.1770   22.5600 C.3    10  ARG10       0.2205
     35  NE        17.8600   11.6280   22.7550 N.pl3  10  ARG10      -0.0865
     36  CZ        18.2860   12.2810   23.8420 C.cat  10  ARG10       0.5346
     37  NH1       17.4440   12.5660   24.8310 N.pl3  10  ARG10       0.1354
     38  NH2       19.5570   12.6490   23.9500 N.pl3  10  ARG10       0.1354
     39  N         14.8480   13.7440   18.1510 N.am   11  ILE11      -0.1963
     40  CA        15.0640   14.8710   17.2570 C.3    11  ILE11       0.1727
     41  C         14.0450   15.9770   17.4940 C.2    11  ILE11       0.2617
     42  O         14.4180   17.1160   17.7810 O.2    11  ILE11      -0.2715
     43  CB        15.0350   14.4210   15.7790 C.3    11  ILE11       0.0290
     44  CG1       16.2200   13.4920   15.5190 C.3    11  ILE11       0.0022
     45  CG2       15.1130   15.6190   14.8550 C.3    11  ILE11       0.0023
     46  CD1       16.2450   12.8380   14.1720 C.3    11  ILE11       0.0001
     47  N         12.7620   15.6530   17.3980 N.am   12  GLY12      -0.1940
     48  CA        11.7640   16.6820   17.6160 C.3    12  GLY12       0.2014
     49  C         12.0730   17.5210   18.8450 C.2    12  GLY12       0.2638
     50  O         12.1220   18.7440   18.7740 O.2    12  GLY12      -0.2714
     51  N         12.2880   16.8520   19.9770 N.am   13  ARG13      -0.1977
     52  CA        12.5860   17.5090   21.2470 C.3    13  ARG13       0.1597
     53  C         13.8450   18.3650   21.1940 C.2    13  ARG13       0.2287
     54  O         13.8150   19.5330   21.5680 O.2    13  ARG13      -0.2864
     55  CB        12.7500   16.4660   22.3420 C.3    13  ARG13       0.0334
     56  CG        11.5730   16.3010   23.2530 C.3    13  ARG13       0.0492
     57  CD        11.8610   15.2010   24.2580 C.3    13  ARG13       0.2205
     58  NE        11.7770   13.8810   23.6590 N.pl3  13  ARG13      -0.0865
     59  CZ        12.5260   12.8420   24.0150 C.cat  13  ARG13       0.5346
     60  NH1       12.3740   11.6740   23.4040 N.pl3  13  ARG13       0.1354
     61  NH2       13.4450   12.9610   24.9600 N.pl3  13  ARG13       0.1354
     62  N          3.1600   18.9130   17.3510 N.3    30  ASN30      -0.1225
     63  CA         2.1440   17.8990   17.2430 C.3    30  ASN30       0.1785
     64  C          2.6960   16.5250   17.5790 C.2    30  ASN30       0.2597
     65  O          3.7790   16.1480   17.1270 O.2    30  ASN30      -0.2718
     66  CB         1.5750   17.8620   15.8360 C.3    30  ASN30       0.1169
     67  CG         0.5110   16.7940   15.6750 C.2    30  ASN30       0.2627
     68  OD1       -0.6400   16.9770   16.0780 O.2    30  ASN30      -0.2716
     69  ND2        0.8910   15.6680   15.0970 N.am   30  ASN30      -0.0877
     70  N          1.9460   15.7850   18.3870 N.am   31  ASP31      -0.1960
     71  CA         2.3060   14.4210   18.7590 C.3    31  ASP31       0.1825
     72  C          1.0990   13.8100   19.4470 C.2    31  ASP31       0.2464
     73  O          0.6790   14.2820   20.4990 O.2    31  ASP31      -0.2730
     74  CB         3.5100   14.4000   19.6800 C.3    31  ASP31       0.1450
     75  CG         4.1140   13.0250   19.7880 C.2    31  ASP31       0.3671
     76  OD1        3.3710   12.0910   20.1320 O.co2  31  ASP31      -0.2456
     77  OD2        5.3220   12.8610   19.5280 O.co2  31  ASP31      -0.2456
     78  N          0.5130   12.7570   18.8470 N.am   32  PRO32      -0.2715
     79  CA        -0.6610   12.0540   19.3610 C.3    32  PRO32       0.1536
     80  C         -0.4010   11.0810   20.4990 C.2    32  PRO32       0.2599
     81  O         -1.3360   10.6800   21.1830 O.2    32  PRO32      -0.2715
     82  CB        -1.1860   11.3410   18.1200 C.3    32  PRO32       0.0310
     83  CG         0.0650   10.9250   17.4600 C.3    32  PRO32       0.0237
     84  CD         0.9020   12.1880   17.5450 C.3    32  PRO32       0.0939
     85  N          0.8520   10.6950   20.7060 N.am   33  PHE33      -0.1960
     86  CA         1.1410    9.7450   21.7610 C.3    33  PHE33       0.1771
     87  C          1.7450   10.2910   23.0430 C.2    33  PHE33       0.2619
     88  O          2.0330    9.5320   23.9490 O.2    33  PHE33      -0.2715
     89  CB         2.0410    8.6550   21.2260 C.3    33  PHE33       0.0574
     90  CG         1.4770    7.9500   20.0470 C.ar   33  PHE33      -0.0200
     91  CD1        1.8630    8.3040   18.7610 C.ar   33  PHE33      -0.0042
     92  CD2        0.5600    6.9200   20.2130 C.ar   33  PHE33      -0.0042
     93  CE1        1.3330    7.6400   17.6530 C.ar   33  PHE33      -0.0003
     94  CE2        0.0260    6.2520   19.1080 C.ar   33  PHE33      -0.0003
     95  CZ         0.4150    6.6080   17.8300 C.ar   33  PHE33      -0.0000
     96  N          1.9300   11.5950   23.1430 N.am   34  ILE34      -0.1977
     97  CA         2.5250   12.1370   24.3500 C.3    34  ILE34       0.1596
     98  C          1.7280   13.2550   24.9770 C.2    34  ILE34       0.2287
     99  O          1.6470   14.3620   24.4440 O.2    34  ILE34      -0.2864
    100  CB         3.9760   12.6120   24.0870 C.3    34  ILE34       0.0276
    101  CG1        4.8510   11.3950   23.7800 C.3    34  ILE34       0.0022
    102  CG2        4.5230   13.3520   25.3020 C.3    34  ILE34       0.0022
    103  CD1        6.2790   11.7280   23.4490 C.3    34  ILE34       0.0001
    104  N         -2.8760   15.3210   16.7360 N.3    75  GLU75      -0.1231
    105  CA        -3.3540   14.6310   15.5400 C.3    75  GLU75       0.1699
    106  C         -2.5210   13.4350   15.1190 C.2    75  GLU75       0.2592
    107  O         -1.3070   13.4690   15.1350 O.2    75  GLU75      -0.2718
    108  CB        -3.4780   15.6080   14.3820 C.3    75  GLU75       0.0402
    109  CG        -4.5770   16.6380   14.5560 C.3    75  GLU75       0.1161
    110  CD        -5.8500   16.0390   15.0980 C.2    75  GLU75       0.3649
    111  OE1       -6.2710   14.9610   14.6170 O.co2  75  GLU75      -0.2457
    112  OE2       -6.4330   16.6550   16.0120 O.co2  75  GLU75      -0.2457
    113  N         -3.2150   12.3780   14.7330 N.am   76  MET76      -0.1979
    114  CA        -2.6190   11.1180   14.3270 C.3    76  MET76       0.1605
    115  C         -2.2220   11.1300   12.8520 C.2    76  MET76       0.2287
    116  O         -1.2430   10.5040   12.4610 O.2    76  MET76      -0.2864
    117  CB        -3.6300   10.0000   14.6050 C.3    76  MET76       0.0413
    118  CG        -3.1810    8.5920   14.3060 C.3    76  MET76       0.0598
    119  SD        -2.0360    7.9380   15.5010 S.3    76  MET76      -0.1393
    120  CE        -0.6070    7.5030   14.4040 C.3    76  MET76       0.0692
    121  N         -1.0600   13.4840    9.6300 N.3    78  PRO78      -0.2116
    122  CA        -0.4990   14.7840    9.2530 C.3    78  PRO78       0.1372
    123  C         -1.4340   15.7580    8.5500 C.2    78  PRO78       0.2244
    124  O         -1.3100   16.9620    8.7090 O.2    78  PRO78      -0.2868
    125  CB         0.7390   14.4050    8.4170 C.3    78  PRO78       0.0268
    126  CG         0.4410   13.0390    7.9240 C.3    78  PRO78       0.0207
    127  CD        -0.2140   12.3940    9.1160 C.3    78  PRO78       0.0892
    128  N          9.6270   15.2190   11.7890 N.3    94  SER94      -0.1202
    129  CA        10.5660   14.3450   12.4750 C.3    94  SER94       0.2020
    130  C          9.9560   13.0770   13.0410 C.2    94  SER94       0.2619
    131  O         10.4850   12.5110   13.9780 O.2    94  SER94      -0.2717
    132  CB        11.2400   15.1120   13.5970 C.3    94  SER94       0.2103
    133  OG        10.2740   15.4560   14.5680 O.3    94  SER94      -0.2182
    134  N          8.8410   12.6340   12.4820 N.am   95  THR95      -0.1938
    135  CA         8.1840   11.4180   12.9420 C.3    95  THR95       0.2028
    136  C          8.9240   10.1910   12.4370 C.2    95  THR95       0.2643
    137  O          8.9570    9.1690   13.1010 O.2    95  THR95      -0.2714
    138  CB         6.7440   11.3310   12.4290 C.3    95  THR95       0.1808
    139  OG1        6.7410   11.2540   10.9930 O.3    95  THR95      -0.2208
    140  CG2        5.9650   12.5350   12.8760 C.3    95  THR95       0.0379
    141  N          9.5090   10.2990   11.2520 N.am   96  GLY96      -0.1939
    142  CA        10.2220    9.1790   10.6870 C.3    96  GLY96       0.2014
    143  C          9.3320    8.3270    9.8110 C.2    96  GLY96       0.2639
    144  O          9.7990    7.3890    9.1760 O.2    96  GLY96      -0.2714
    145  N          8.0450    8.6530    9.7570 N.am   97  VAL97      -0.1963
    146  CA         7.1240    7.8730    8.9400 C.3    97  VAL97       0.1727
    147  C          6.6490    8.5840    7.6730 C.2    97  VAL97       0.2616
    148  O          6.2860    7.9310    6.7010 O.2    97  VAL97      -0.2715
    149  CB         5.9010    7.4200    9.7400 C.3    97  VAL97       0.0290
    150  CG1        6.3610    6.6330   10.9310 C.3    97  VAL97       0.0023
    151  CG2        5.0840    8.6050   10.1550 C.3    97  VAL97       0.0023
    152  N          6.6600    9.9120    7.6670 N.am   98  PHE98      -0.1974
    153  CA         6.2310   10.6630    6.4780 C.3    98  PHE98       0.1639
    154  C          7.4690   11.2830    5.8160 C.2    98  PHE98       0.2290
    155  O          7.6080   12.5040    5.7410 O.2    98  PHE98      -0.2864
    156  CB         5.2200   11.7480    6.8790 C.3    98  PHE98       0.0560
    157  CG         4.1270   11.2410    7.7810 C.ar   98  PHE98      -0.0200
    158  CD1        3.3190   10.1850    7.3970 C.ar   98  PHE98      -0.0042
    159  CD2        3.9360   11.7830    9.0420 C.ar   98  PHE98      -0.0042
    160  CE1        2.3450    9.6860    8.2550 C.ar   98  PHE98      -0.0003
    161  CE2        2.9570   11.2800    9.9040 C.ar   98  PHE98      -0.0003
    162  CZ         2.1700   10.2340    9.5060 C.ar   98  PHE98      -0.0000
    163  N         22.0470   12.2950   10.3520 N.3   148  CYS148     -0.1235
    164  CA        23.1370   12.8150   11.1710 C.3   148  CYS148      0.1677
    165  C         24.5510   12.3640   10.6980 C.2   148  CYS148      0.2270
    166  O         25.5260   13.1200   10.8260 O.2   148  CYS148     -0.2867
    167  CB        22.8980   12.4370   12.6430 C.3   148  CYS148      0.0956
    168  SG        22.5300   10.6730   12.9580 S.3   148  CYS148     -0.0801
    169  N         29.1790    4.0000   15.8840 N.3   175  HIS175     -0.1241
    170  CA        28.0260    4.7710   16.3380 C.3   175  HIS175      0.1621
    171  C         27.5250    4.5130   17.7470 C.2   175  HIS175      0.2264
    172  O         27.5540    3.3870   18.2200 O.2   175  HIS175     -0.2867
    173  CB        26.9120    4.4870   15.3360 C.3   175  HIS175      0.0745
    174  CG        25.8600    5.5400   15.2660 C.ar  175  HIS175      0.0817
    175  ND1       24.8790    5.6720   16.2210 N.ar  175  HIS175     -0.2268
    176  CD2       25.6040    6.4710   14.3190 C.ar  175  HIS175      0.1154
    177  CE1       24.0540    6.6430   15.8610 C.ar  175  HIS175      0.1986
    178  NE2       24.4690    7.1420   14.7160 N.ar  175  HIS175     -0.2212
    179  N         24.6450    4.1560   20.7730 N.3   177  VAL177     -0.1231
    180  CA        23.3860    3.4150   20.7030 C.3   177  VAL177      0.1692
    181  C         22.2610    4.3070   20.2200 C.2   177  VAL177      0.2593
    182  O         22.2890    5.5330   20.4040 O.2   177  VAL177     -0.2718
    183  CB        22.9620    2.8150   22.0600 C.3   177  VAL177      0.0266
    184  CG1       23.9790    1.7920   22.4940 C.3   177  VAL177      0.0020
    185  CG2       22.8060    3.9200   23.1100 C.3   177  VAL177      0.0020
    186  N         21.2640    3.6790   19.6040 N.am  178  THR178     -0.1939
    187  CA        20.1220    4.4040   19.0750 C.3   178  THR178      0.2028
    188  C         18.8500    4.0300   19.8220 C.2   178  THR178      0.2642
    189  O         18.8160    3.0540   20.5600 O.2   178  THR178     -0.2714
    190  CB        19.9560    4.1280   17.5670 C.3   178  THR178      0.1808
    191  OG1       19.5750    2.7700   17.3650 O.3   178  THR178     -0.2208
    192  CG2       21.2670    4.3970   16.8300 C.3   178  THR178      0.0379
    193  N         17.8080    4.8300   19.6430 N.am  179  ALA179     -0.1963
    194  CA        16.5350    4.5770   20.3100 C.3   179  ALA179      0.1728
    195  C         15.8630    3.3170   19.7850 C.2   179  ALA179      0.2616
    196  O         14.9670    2.7860   20.4270 O.2   179  ALA179     -0.2715
    197  CB        15.6000    5.7800   20.1280 C.3   179  ALA179      0.0334
    198  N         16.2980    2.8350   18.6230 N.am  180  THR180     -0.1951
    199  CA        15.7060    1.6330   18.0260 C.3   180  THR180      0.1897
    200  C         16.3700    0.3310   18.4760 C.2   180  THR180      0.2313
    201  O         16.0320   -0.7380   17.9680 O.2   180  THR180     -0.2863
    202  CB        15.7530    1.6730   16.4720 C.3   180  THR180      0.1794
    203  OG1       17.1040    1.8750   16.0340 O.3   180  THR180     -0.2208
    204  CG2       14.8760    2.7840   15.9410 C.3   180  THR180      0.0378
    205  N         25.8780   12.9930   17.1390 N.3   312  ASN312     -0.1225
    206  CA        24.7440   12.6040   16.3200 C.3   312  ASN312      0.1785
    207  C         23.4080   13.2310   16.6410 C.2   312  ASN312      0.2597
    208  O         22.5900   13.4360   15.7560 O.2   312  ASN312     -0.2718
    209  CB        24.6200   11.0750   16.2830 C.3   312  ASN312      0.1169
    210  CG        24.7960   10.4540   17.6240 C.2   312  ASN312      0.2627
    211  OD1       23.8500   10.3400   18.4030 O.2   312  ASN312     -0.2716
    212  ND2       26.0240   10.0600   17.9210 N.am  312  ASN312     -0.0877
    213  N         23.1570   13.5570   17.8860 N.am  313  GLU313     -0.1979
    214  CA        21.8660   14.1460   18.1760 C.3   313  GLU313      0.1602
    215  C         21.8740   15.6860   18.0370 C.2   313  GLU313      0.2287
    216  O         21.0770   16.2450   17.3020 O.2   313  GLU313     -0.2864
    217  CB        21.4190   13.7170   19.5930 C.3   313  GLU313      0.0415
    218  CG        21.4220   12.2000   19.8120 C.3   313  GLU313      0.1163
    219  CD        20.9340   11.7580   21.2060 C.2   313  GLU313      0.3649
    220  OE1       21.5230   12.2070   22.2270 O.co2 313  GLU313     -0.2457
    221  OE2       19.9700   10.9440   21.2660 O.co2 313  GLU313     -0.2457
@<TRIPOS>BOND
     1   155   154    2
     2   154   153    1
     3   153   156    1
     4   153   152    1
     5   148   147    2
     6   156   157    1
     7   158   157   ar
     8   158   160   ar
     9   152   147   am
    10   147   146    1
    11   157   159   ar
    12   126   125    1
    13   126   127    1
    14   160   162   ar
    15   125   122    1
    16   123   124    2
    17   123   122    1
    18   146   149    1
    19   146   145    1
    20   159   161   ar
    21   127   121    1
    22   144   143    2
    23   122   121    1
    24   162   161   ar
    25   149   151    1
    26   149   150    1
    27   145   143   am
    28   143   142    1
    29   163   164    1
    30   142   141    1
    31   165   166    2
    32   165   164    1
    33   139   138    1
    34   164   167    1
    35   141   136   am
    36     7     6    2
    37   128   129    1
    38   138   140    1
    39   138   135    1
    40   136   135    1
    41   136   137    2
    42   116   115    2
    43   129   130    1
    44   129   132    1
    45   134   135    1
    46   134   130   am
    47   167   168    1
    48     5     6    1
    49     5     2    1
    50     6     8   am
    51   115   114    1
    52   130   131    2
    53   132   133    1
    54     4     3    2
    55     1     2    1
    56     2     3    1
    57    46    44    1
    58   118   117    1
    59   118   119    1
    60   176   178   ar
    61   176   174   ar
    62   114   117    1
    63   114   113    1
    64   108   109    1
    65   108   105    1
    66   120   119    1
    67   109   110    1
    68   111   110   ar
    69     3     9   am
    70   178   177   ar
    71   113   106   am
    72    45    43    1
    73    69    67   am
    74   110   112   ar
    75   106   107    2
    76   106   105    1
    77   174   173    1
    78   174   175   ar
    79   173   170    1
    80    44    43    1
    81   105   104    1
    82    67    66    1
    83    67    68    2
    84   208   207    2
    85    43    40    1
    86     9    10    1
    87    66    63    1
    88   177   175   ar
    89   169   170    1
    90   204   202    1
    91   203   202    1
    92   209   206    1
    93   209   210    1
    94   206   207    1
    95   206   205    1
    96   170   171    1
    97    10    11    1
    98   202   199    1
    99   207   213   am
   100   192   190    1
   101    65    64    2
   102    63    62    1
   103    63    64    1
   104    40    41    1
   105    40    39    1
   106   216   215    2
   107    12    11    2
   108   191   190    1
   109    47    41   am
   110    47    48    1
   111    83    84    1
   112    83    82    1
   113    41    42    2
   114    84    78    1
   115    11    13   am
   116   190   187    1
   117    64    70   am
   118    48    49    1
   119   210   212   am
   120   210   211    2
   121    93    95   ar
   122    93    91   ar
   123   171   172    2
   124    95    94   ar
   125   213   214    1
   126   201   200    2
   127   199   200    1
   128   199   198    1
   129   215   214    1
   130    82    79    1
   131    39    30   am
   132   214   217    1
   133    70    71    1
   134   198   195   am
   135    13    14    1
   136    71    72    1
   137    71    74    1
   138    91    90   ar
   139    50    49    2
   140    49    51   am
   141    78    79    1
   142    78    72   am
   143   187   186    1
   144   187   188    1
   145    94    92   ar
   146    79    80    1
   147    24    25    1
   148    24    15   am
   149    30    31    2
   150    30    29    1
   151    72    73    2
   152    77    75   ar
   153   217   218    1
   154   186   181   am
   155   193   188   am
   156   193   194    1
   157    74    75    1
   158    25    26    1
   159   195   194    1
   160   195   196    2
   161    75    76   ar
   162   218   219    1
   163   188   189    2
   164    14    15    1
   165    14    17    1
   166    51    52    1
   167    28    26   am
   168    28    29    1
   169    26    27    2
   170    90    92   ar
   171    90    89    1
   172    32    29    1
   173    32    33    1
   174   197   194    1
   175   181   182    2
   176   181   180    1
   177    15    16    2
   178    80    85   am
   179    80    81    2
   180   180   179    1
   181   180   183    1
   182    85    86    1
   183    17    18    1
   184    19    18   ar
   185    19    21   ar
   186    33    34    1
   187    53    52    1
   188    53    54    2
   189   219   221   ar
   190   219   220   ar
   191    89    86    1
   192    52    55    1
   193    86    87    1
   194    18    20   ar
   195    21    23   ar
   196   183   184    1
   197   183   185    1
   198    55    56    1
   199    34    35    1
   200    35    36    2
   201    87    96   am
   202    87    88    2
   203    96    97    1
   204    20    22   ar
   205    23    22   ar
   206    56    57    1
   207    60    59    1
   208   103   101    1
   209    58    59    2
   210    58    57    1
   211   101   100    1
   212    36    38    1
   213    36    37    1
   214    59    61    1
   215   100    97    1
   216   100   102    1
   217    97    98    1
   218    99    98    2
