@<TRIPOS>MOLECULE
tmp/1ii0B00.pdb
 184 175 0 0 0
SMALL
GASTEIGER

@<TRIPOS>ATOM
      1  N         16.4450  140.6710   -2.6760 N.3    18  GLY18      -0.1210
      2  CA        16.6840  139.5340   -3.5440 C.3    18  GLY18       0.1956
      3  C         15.5250  139.0240   -4.3840 C.2    18  GLY18       0.2612
      4  O         15.7190  138.0900   -5.1630 O.2    18  GLY18      -0.2717
      5  N         14.3320  139.6000   -4.2470 N.am   19  VAL19      -0.1965
      6  CA        13.2090  139.1240   -5.0520 C.3    19  VAL19       0.1727
      7  C         13.4110  139.3640   -6.5450 C.2    19  VAL19       0.2617
      8  O         12.7870  138.6950   -7.3630 O.2    19  VAL19      -0.2715
      9  CB        11.8640  139.7680   -4.6420 C.3    19  VAL19       0.0290
     10  CG1       11.4190  139.2140   -3.3220 C.3    19  VAL19       0.0023
     11  CG2       11.9950  141.2820   -4.5850 C.3    19  VAL19       0.0023
     12  N         14.2680  140.3220   -6.8930 N.am   20  GLY20      -0.1940
     13  CA        14.5340  140.6010   -8.2930 C.3    20  GLY20       0.2014
     14  C         14.2910  142.0340   -8.7340 C.2    20  GLY20       0.2639
     15  O         14.3240  142.3310   -9.9260 O.2    20  GLY20      -0.2714
     16  N         14.0540  142.9260   -7.7770 N.am   21  LYS21      -0.1963
     17  CA        13.7930  144.3320   -8.0760 C.3    21  LYS21       0.1728
     18  C         14.7640  144.9820   -9.0490 C.2    21  LYS21       0.2617
     19  O         14.3490  145.4930  -10.0880 O.2    21  LYS21      -0.2715
     20  CB        13.7760  145.1630   -6.7920 C.3    21  LYS21       0.0311
     21  CG        12.5650  144.9390   -5.9030 C.3    21  LYS21       0.0038
     22  CD        12.6360  145.8450   -4.6870 C.3    21  LYS21       0.0206
     23  CE        13.9850  145.7150   -3.9740 C.3    21  LYS21       0.1093
     24  NZ        14.2410  144.3110   -3.5410 N.3    21  LYS21      -0.1314
     25  N         16.0500  144.9820   -8.7060 N.am   22  THR22      -0.1937
     26  CA        17.0570  145.6040   -9.5610 C.3    22  THR22       0.2028
     27  C         17.0930  145.0050  -10.9650 C.2    22  THR22       0.2642
     28  O         17.1860  145.7360  -11.9520 O.2    22  THR22      -0.2714
     29  CB        18.4480  145.5060   -8.9280 C.3    22  THR22       0.1808
     30  OG1       18.4240  146.1410   -7.6450 O.3    22  THR22      -0.2208
     31  CG2       19.4830  146.1970   -9.7990 C.3    22  THR22       0.0379
     32  N         17.0140  143.6790  -11.0520 N.am   23  SER23      -0.1949
     33  CA        17.0260  143.0020  -12.3460 C.3    23  SER23       0.1924
     34  C         15.8790  143.4950  -13.2380 C.2    23  SER23       0.2314
     35  O         16.0910  143.9230  -14.3830 O.2    23  SER23      -0.2863
     36  CB        16.9120  141.4890  -12.1460 C.3    23  SER23       0.2116
     37  OG        18.0480  140.9890  -11.4600 O.3    23  SER23      -0.2180
     38  N         20.5870  150.6680   -4.3660 N.3    45  ASP45      -0.1239
     39  CA        21.1930  149.6810   -3.4810 C.3    45  ASP45       0.1674
     40  C         22.4770  150.1440   -2.8170 C.2    45  ASP45       0.2266
     41  O         23.2730  150.8660   -3.4200 O.2    45  ASP45      -0.2867
     42  CB        21.4230  148.3750   -4.2370 C.3    45  ASP45       0.1410
     43  CG        20.1200  147.6570   -4.5570 C.2    45  ASP45       0.3668
     44  OD1       20.1690  146.6430   -5.2870 O.co2  45  ASP45      -0.2456
     45  OD2       19.0520  148.1080   -4.0690 O.co2  45  ASP45      -0.2456
     46  N         25.3480  147.2530   -7.9790 N.3    49  ASN49      -0.1240
     47  CA        26.0810  146.3870   -8.8860 C.3    49  ASN49       0.1653
     48  C         25.5980  146.6750  -10.3010 C.2    49  ASN49       0.2266
     49  O         25.9910  146.0050  -11.2590 O.2    49  ASN49      -0.2867
     50  CB        25.8080  144.9360   -8.5180 C.3    49  ASN49       0.1155
     51  CG        24.3270  144.6390   -8.4110 C.2    49  ASN49       0.2627
     52  OD1       23.6930  144.2060   -9.3770 O.2    49  ASN49      -0.2716
     53  ND2       23.7600  144.8920   -7.2370 N.am   49  ASN49      -0.0877
     54  N         14.7360  151.1900   -8.1020 N.3   142  ASP142     -0.1239
     55  CA        14.7280  149.7780   -7.7420 C.3   142  ASP142      0.1674
     56  C         14.3940  149.4570   -6.2880 C.2   142  ASP142      0.2266
     57  O         14.6530  148.3590   -5.8190 O.2   142  ASP142     -0.2867
     58  CB        16.0220  149.0680   -8.1790 C.3   142  ASP142      0.1410
     59  CG        17.2770  149.6770   -7.5940 C.2   142  ASP142      0.3668
     60  OD1       17.2300  150.7710   -6.9870 O.co2 142  ASP142     -0.2456
     61  OD2       18.3360  149.0350   -7.7710 O.co2 142  ASP142     -0.2456
     62  N          7.5560  136.1630   -5.1830 N.3   206  ARG206     -0.1245
     63  CA         7.8160  134.8360   -5.7160 C.3   206  ARG206      0.1563
     64  C          6.6950  133.9300   -5.2290 C.2   206  ARG206      0.2260
     65  O          6.0140  134.2530   -4.2530 O.2   206  ARG206     -0.2867
     66  CB         9.1670  134.3190   -5.2230 C.3   206  ARG206      0.0307
     67  CG        10.3120  135.2380   -5.5770 C.3   206  ARG206      0.0489
     68  CD        11.5340  134.4810   -6.0570 C.3   206  ARG206      0.2205
     69  NE        12.5700  135.4060   -6.5050 N.pl3 206  ARG206     -0.0865
     70  CZ        13.7670  135.0400   -6.9490 C.cat 206  ARG206      0.5346
     71  NH1       14.1000  133.7580   -7.0160 N.pl3 206  ARG206      0.1354
     72  NH2       14.6360  135.9620   -7.3190 N.pl3 206  ARG206      0.1354
     73  N          8.0820  136.9710   -9.7830 N.3   235  ASN235     -0.1225
     74  CA         9.3440  136.5970  -10.4220 C.3   235  ASN235      0.1785
     75  C          9.8810  135.1830  -10.1260 C.2   235  ASN235      0.2597
     76  O          9.4550  134.5140   -9.1880 O.2   235  ASN235     -0.2718
     77  CB        10.4030  137.6200  -10.0110 C.3   235  ASN235      0.1169
     78  CG        11.6880  137.4910  -10.7990 C.2   235  ASN235      0.2627
     79  OD1       12.7680  137.8120  -10.2930 O.2   235  ASN235     -0.2716
     80  ND2       11.5850  137.0390  -12.0500 N.am  235  ASN235     -0.0877
     81  N         10.8350  134.7480  -10.9450 N.am  236  GLY236     -0.1957
     82  CA        11.4640  133.4470  -10.7760 C.3   236  GLY236      0.1869
     83  C         10.5890  132.2000  -10.7600 C.2   236  GLY236      0.2309
     84  O         10.9780  131.1940  -10.1750 O.2   236  GLY236     -0.2863
     85  N          9.7580  134.1100  -15.5510 N.3   276  PHE276     -0.1227
     86  CA        10.2950  132.7750  -15.3040 C.3   276  PHE276      0.1736
     87  C         11.7100  132.7270  -14.7500 C.2   276  PHE276      0.2595
     88  O         12.5160  133.6330  -14.9740 O.2   276  PHE276     -0.2718
     89  CB        10.2370  131.9460  -16.5900 C.3   276  PHE276      0.0547
     90  CG         8.8450  131.5600  -16.9930 C.ar  276  PHE276     -0.0202
     91  CD1        8.1320  130.6200  -16.2520 C.ar  276  PHE276     -0.0042
     92  CD2        8.2310  132.1580  -18.0910 C.ar  276  PHE276     -0.0042
     93  CE1        6.8270  130.2800  -16.5950 C.ar  276  PHE276     -0.0003
     94  CE2        6.9250  131.8250  -18.4410 C.ar  276  PHE276     -0.0003
     95  CZ         6.2200  130.8840  -17.6900 C.ar  276  PHE276     -0.0000
     96  N         11.9990  131.6490  -14.0270 N.am  277  LEU277     -0.1966
     97  CA        13.3130  131.4430  -13.4480 C.3   277  LEU277      0.1728
     98  C         14.3110  131.3330  -14.5940 C.2   277  LEU277      0.2616
     99  O         14.1390  130.5140  -15.4890 O.2   277  LEU277     -0.2715
    100  CB        13.3180  130.1580  -12.6050 C.3   277  LEU277      0.0311
    101  CG        14.6430  129.6560  -12.0070 C.3   277  LEU277      0.0022
    102  CD1       15.2130  130.6710  -11.0190 C.3   277  LEU277      0.0001
    103  CD2       14.4050  128.3230  -11.3170 C.3   277  LEU277      0.0001
    104  N         15.3410  132.1720  -14.5730 N.am  278  GLN278     -0.1977
    105  CA        16.3620  132.1600  -15.6110 C.3   278  GLN278      0.1601
    106  C         17.5020  131.2390  -15.1850 C.2   278  GLN278      0.2287
    107  O         17.7430  131.0560  -13.9940 O.2   278  GLN278     -0.2864
    108  CB        16.8980  133.5730  -15.8460 C.3   278  GLN278      0.0394
    109  CG        15.8250  134.5980  -16.1810 C.3   278  GLN278      0.0908
    110  CD        15.1670  134.3570  -17.5350 C.2   278  GLN278      0.2608
    111  OE1       15.8270  134.3960  -18.5760 O.2   278  GLN278     -0.2717
    112  NE2       13.8590  134.1090  -17.5240 N.am  278  GLN278     -0.0878
    113  N         20.9720  131.4850  -15.7310 N.3   280  VAL280     -0.1231
    114  CA        22.0970  132.1710  -15.1400 C.3   280  VAL280      0.1692
    115  C         21.6620  133.5420  -14.6390 C.2   280  VAL280      0.2592
    116  O         20.7550  134.1530  -15.2000 O.2   280  VAL280     -0.2718
    117  CB        23.2360  132.3300  -16.1860 C.3   280  VAL280      0.0266
    118  CG1       24.3660  133.1890  -15.6240 C.3   280  VAL280      0.0020
    119  CG2       23.7580  130.9540  -16.5850 C.3   280  VAL280      0.0020
    120  N         22.2990  134.0160  -13.5750 N.am  281  ASN281     -0.1960
    121  CA        21.9690  135.3280  -13.0470 C.3   281  ASN281      0.1819
    122  C         22.3190  136.3140  -14.1590 C.2   281  ASN281      0.2621
    123  O         23.4670  136.3540  -14.6170 O.2   281  ASN281     -0.2715
    124  CB        22.7800  135.6280  -11.7730 C.3   281  ASN281      0.1195
    125  CG        22.4820  134.6470  -10.6310 C.2   281  ASN281      0.2630
    126  OD1       21.4190  134.0190  -10.5860 O.2   281  ASN281     -0.2716
    127  ND2       23.4200  134.5300   -9.6940 N.am  281  ASN281     -0.0877
    128  N         21.3240  137.0860  -14.5990 N.am  282  MET282     -0.1977
    129  CA        21.5030  138.0640  -15.6740 C.3   282  MET282      0.1605
    130  C         22.5710  139.1190  -15.3770 C.2   282  MET282      0.2287
    131  O         22.4510  139.8930  -14.4250 O.2   282  MET282     -0.2864
    132  CB        20.1840  138.7780  -15.9830 C.3   282  MET282      0.0413
    133  CG        19.0000  137.8710  -16.2530 C.3   282  MET282      0.0598
    134  SD        18.3440  137.1220  -14.7530 S.3   282  MET282     -0.1393
    135  CE        17.2970  138.4410  -14.1500 C.3   282  MET282      0.0692
    136  N         14.5230  138.0640  -19.6180 N.3   291  LEU291     -0.1245
    137  CA        13.7250  138.0320  -18.3980 C.3   291  LEU291      0.1561
    138  C         12.2700  138.4150  -18.6700 C.2   291  LEU291      0.2260
    139  O         11.3570  137.9190  -18.0100 O.2   291  LEU291     -0.2867
    140  CB        14.3110  138.9920  -17.3590 C.3   291  LEU291      0.0270
    141  CG        14.1750  138.7140  -15.8550 C.3   291  LEU291      0.0019
    142  CD1       14.2990  140.0390  -15.1210 C.3   291  LEU291      0.0001
    143  CD2       12.8480  138.0610  -15.5140 C.3   291  LEU291      0.0001
    144  N         22.4590  133.5070   -2.1700 N.3   464  GLU464     -0.1231
    145  CA        22.1990  134.5400   -3.1640 C.3   464  GLU464      0.1699
    146  C         22.8840  135.8740   -2.8350 C.2   464  GLU464      0.2593
    147  O         23.0130  136.2470   -1.6720 O.2   464  GLU464     -0.2718
    148  CB        20.6910  134.7300   -3.2660 C.3   464  GLU464      0.0402
    149  CG        19.9450  133.4290   -3.4550 C.3   464  GLU464      0.1161
    150  CD        18.4630  133.5450   -3.1460 C.2   464  GLU464      0.3649
    151  OE1       17.9430  134.6820   -3.1040 O.co2 464  GLU464     -0.2457
    152  OE2       17.8100  132.4970   -2.9560 O.co2 464  GLU464     -0.2457
    153  N         23.2990  136.5870   -3.8810 N.am  465  THR465     -0.1939
    154  CA        23.9900  137.8800   -3.7680 C.3   465  THR465      0.2028
    155  C         23.4220  138.8650   -2.7440 C.2   465  THR465      0.2643
    156  O         24.0500  139.1420   -1.7220 O.2   465  THR465     -0.2714
    157  CB        24.0360  138.6010   -5.1390 C.3   465  THR465      0.1808
    158  OG1       22.6980  138.8220   -5.6080 O.3   465  THR465     -0.2208
    159  CG2       24.7970  137.7590   -6.1620 C.3   465  THR465      0.0379
    160  N         22.2440  139.4080   -3.0180 N.am  466  THR466     -0.1937
    161  CA        21.6380  140.3680   -2.0990 C.3   466  THR466      0.2013
    162  C         21.5050  139.8260   -0.6590 C.2   466  THR466      0.2484
    163  O         21.9920  140.4490    0.2860 O.2   466  THR466     -0.2729
    164  CB        20.2690  140.8510   -2.6420 C.3   466  THR466      0.1807
    165  OG1       20.4770  141.5440   -3.8840 O.3   466  THR466     -0.2208
    166  CG2       19.5920  141.8000   -1.6520 C.3   466  THR466      0.0379
    167  N         20.8510  138.6630   -0.4710 N.am  467  PRO467     -0.2726
    168  CA        20.7080  138.1050    0.8760 C.3   467  PRO467      0.1402
    169  C         22.0350  138.0300    1.6390 C.2   467  PRO467      0.2269
    170  O         22.0830  138.3330    2.8280 O.2   467  PRO467     -0.2865
    171  CB        20.1160  136.7270    0.6090 C.3   467  PRO467      0.0296
    172  CG        19.2460  136.9870   -0.5590 C.3   467  PRO467      0.0237
    173  CD        20.1340  137.8260   -1.4470 C.3   467  PRO467      0.0939
    174  N         20.9170  126.4780  -11.8410 N.3   507  ARG507     -0.1245
    175  CA        20.7510  127.4210  -10.7400 C.3   507  ARG507      0.1563
    176  C         21.7220  127.0960   -9.6190 C.2   507  ARG507      0.2260
    177  O         22.2930  127.9980   -9.0070 O.2   507  ARG507     -0.2867
    178  CB        19.3160  127.3860  -10.1970 C.3   507  ARG507      0.0307
    179  CG        18.2610  127.9600  -11.1410 C.3   507  ARG507      0.0489
    180  CD        18.6560  129.3470  -11.6400 C.3   507  ARG507      0.2205
    181  NE        18.9980  130.2420  -10.5390 N.pl3 507  ARG507     -0.0865
    182  CZ        19.5720  131.4310  -10.6880 C.cat 507  ARG507      0.5346
    183  NH1       19.8740  131.8860  -11.8980 N.pl3 507  ARG507      0.1354
    184  NH2       19.8550  132.1590   -9.6190 N.pl3 507  ARG507      0.1354
@<TRIPOS>BOND
     1   136   137    1
     2   138   137    1
     3   138   139    2
     4   111   110    2
     5    94    92   ar
     6    94    95   ar
     7   137   140    1
     8    92    90   ar
     9    95    93   ar
    10   110   112   am
    11   110   109    1
    12   140   141    1
    13    90    89    1
    14    90    91   ar
    15    93    91   ar
    16    89    86    1
    17   119   117    1
    18   133   132    1
    19   133   134    1
    20   117   118    1
    21   117   114    1
    22   109   108    1
    23   132   129    1
    24   141   143    1
    25   141   142    1
    26   108   105    1
    27   113   114    1
    28   129   130    1
    29   129   128    1
    30   105   106    1
    31   105   104    1
    32    85    86    1
    33    99    98    2
    34   130   131    2
    35    86    87    1
    36   116   115    2
    37   106   107    2
    38   114   115    1
    39    88    87    2
    40   134   135    1
    41    87    96   am
    42   115   120   am
    43   123   122    2
    44   128   122   am
    45    98   104   am
    46    98    97    1
    47    35    34    2
    48   122   121    1
    49    96    97    1
    50   120   121    1
    51    97   100    1
    52    34    33    1
    53   121   124    1
    54   100   101    1
    55    33    36    1
    56    33    32    1
    57    36    37    1
    58    80    78   am
    59   101   103    1
    60   101   102    1
    61    28    27    2
    62   183   182    1
    63   174   175    1
    64   124   125    1
    65   180   179    1
    66   180   181    1
    67    49    48    2
    68   179   178    1
    69    32    27   am
    70    27    26    1
    71    81    82    1
    72    81    75   am
    73    78    79    2
    74    78    77    1
    75    82    83    1
    76    83    84    2
    77   175   178    1
    78   175   176    1
    79   182   181    2
    80   182   184    1
    81   125   126    2
    82   125   127   am
    83    74    75    1
    84    74    77    1
    85    74    73    1
    86    48    47    1
    87    75    76    2
    88    19    18    2
    89    15    14    2
    90    31    29    1
    91   176   177    2
    92    26    29    1
    93    26    25    1
    94    52    51    2
    95    18    25   am
    96    18    17    1
    97    29    30    1
    98    47    50    1
    99    47    46    1
   100    14    13    1
   101    14    16   am
   102    50    51    1
   103    51    53   am
   104    13    12    1
   105    58    55    1
   106    58    59    1
   107    54    55    1
   108    17    16    1
   109    17    20    1
   110    61    59   ar
   111    55    56    1
   112    59    60   ar
   113     8     7    2
   114    72    70    1
   115    71    70    1
   116    70    69    2
   117    12     7   am
   118    20    21    1
   119     7     6    1
   120    69    68    1
   121    56    57    2
   122   159   157    1
   123    68    67    1
   124    21    22    1
   125    63    64    1
   126    63    66    1
   127    63    62    1
   128   158   157    1
   129    67    66    1
   130    44    43   ar
   131    64    65    2
   132     4     3    2
   133   157   154    1
   134     6     9    1
   135     6     5    1
   136    22    23    1
   137     9    11    1
   138     9    10    1
   139    43    42    1
   140    43    45   ar
   141     3     5   am
   142     3     2    1
   143    38    39    1
   144    42    39    1
   145    23    24    1
   146   165   164    1
   147   153   154    1
   148   153   146   am
   149   154   155    1
   150     2     1    1
   151    39    40    1
   152   149   148    1
   153   149   150    1
   154    41    40    2
   155   148   145    1
   156   145   146    1
   157   145   144    1
   158   150   151   ar
   159   150   152   ar
   160   160   155   am
   161   160   161    1
   162   146   147    2
   163   155   156    2
   164   164   161    1
   165   164   166    1
   166   161   162    1
   167   173   172    1
   168   173   167    1
   169   162   167   am
   170   162   163    2
   171   172   171    1
   172   167   168    1
   173   171   168    1
   174   168   169    1
   175   169   170    2
