@<TRIPOS>MOLECULE
tmp/1ii0B01.pdb
 162 155 0 0 0
SMALL
GASTEIGER

@<TRIPOS>ATOM
      1  N          5.7280  131.7700   -3.1430 N.3   208  GLN208     -0.1231
      2  CA         6.0780  131.2180   -1.8410 C.3   208  GLN208      0.1698
      3  C          5.0450  131.8540   -0.9120 C.2   208  GLN208      0.2592
      4  O          4.9090  133.0770   -0.8890 O.2   208  GLN208     -0.2718
      5  CB         7.4970  131.6560   -1.4630 C.3   208  GLN208      0.0381
      6  CG         8.3590  130.5840   -0.7980 C.3   208  GLN208      0.0905
      7  CD         7.8670  130.2020    0.5860 C.2   208  GLN208      0.2608
      8  OE1        7.7040  131.0600    1.4580 O.2   208  GLN208     -0.2717
      9  NE2        7.6350  128.9060    0.7980 N.am  208  GLN208     -0.0878
     10  N          4.3150  131.0370   -0.1560 N.am  209  LYS209     -0.1966
     11  CA         3.2680  131.5600    0.7230 C.3   209  LYS209      0.1728
     12  C          3.6970  132.6220    1.7350 C.2   209  LYS209      0.2616
     13  O          2.9500  133.5690    1.9830 O.2   209  LYS209     -0.2715
     14  CB         2.5620  130.4220    1.4680 C.3   209  LYS209      0.0311
     15  CG         1.2370  130.8570    2.1030 C.3   209  LYS209      0.0038
     16  CD         0.5400  129.7210    2.8410 C.3   209  LYS209      0.0206
     17  CE        -0.8830  130.1060    3.2500 C.3   209  LYS209      0.1093
     18  NZ        -1.8050  130.2960    2.0830 N.3   209  LYS209     -0.1314
     19  N          4.8830  132.4740    2.3190 N.am  210  SER210     -0.1950
     20  CA         5.3530  133.4430    3.3050 C.3   210  SER210      0.1924
     21  C          5.7120  134.7820    2.6650 C.2   210  SER210      0.2314
     22  O          5.3890  135.8420    3.2050 O.2   210  SER210     -0.2863
     23  CB         6.5740  132.9060    4.0550 C.3   210  SER210      0.2116
     24  OG         7.7490  133.0250    3.2660 O.3   210  SER210     -0.2180
     25  N          4.2110  123.1530   -5.7530 N.3   255  ARG255     -0.1245
     26  CA         4.1570  123.9720   -4.5540 C.3   255  ARG255      0.1563
     27  C          3.8960  125.4300   -4.9210 C.2   255  ARG255      0.2260
     28  O          3.1020  126.1100   -4.2720 O.2   255  ARG255     -0.2867
     29  CB         5.4670  123.8450   -3.7880 C.3   255  ARG255      0.0307
     30  CG         5.4690  124.5650   -2.4620 C.3   255  ARG255      0.0489
     31  CD         6.6770  124.1550   -1.6600 C.3   255  ARG255      0.2205
     32  NE         7.9200  124.5810   -2.2880 N.pl3 255  ARG255     -0.0865
     33  CZ         9.0950  124.0190   -2.0380 C.cat 255  ARG255      0.5346
     34  NH1        9.1730  123.0090   -1.1810 N.pl3 255  ARG255      0.1354
     35  NH2       10.1920  124.4740   -2.6260 N.pl3 255  ARG255      0.1354
     36  N         13.9650  138.8720    6.9670 N.3   326  GLY326     -0.1210
     37  CA        12.6620  138.2420    6.9760 C.3   326  GLY326      0.1956
     38  C         12.5780  137.0610    6.0340 C.2   326  GLY326      0.2612
     39  O         13.0810  137.1160    4.9210 O.2   326  GLY326     -0.2717
     40  N         11.9810  135.9690    6.4930 N.am  327  GLY327     -0.1942
     41  CA        11.8090  134.8070    5.6400 C.3   327  GLY327      0.2014
     42  C         12.9840  133.9480    5.2160 C.2   327  GLY327      0.2639
     43  O         12.7810  133.0100    4.4490 O.2   327  GLY327     -0.2714
     44  N         14.1970  134.2310    5.6780 N.am  328  VAL328     -0.1963
     45  CA        15.3430  133.4050    5.2870 C.3   328  VAL328      0.1727
     46  C         15.2230  131.9910    5.8480 C.2   328  VAL328      0.2617
     47  O         15.8530  131.0540    5.3380 O.2   328  VAL328     -0.2715
     48  CB        16.6860  134.0070    5.7600 C.3   328  VAL328      0.0290
     49  CG1       16.9480  135.3140    5.0330 C.3   328  VAL328      0.0023
     50  CG2       16.6670  134.2340    7.2530 C.3   328  VAL328      0.0023
     51  N         14.4140  131.8410    6.8960 N.am  329  GLY329     -0.1940
     52  CA        14.2180  130.5330    7.4960 C.3   329  GLY329      0.2014
     53  C         14.6600  130.3880    8.9430 C.2   329  GLY329      0.2639
     54  O         14.9480  129.2840    9.3970 O.2   329  GLY329     -0.2714
     55  N         14.7120  131.4890    9.6760 N.am  330  LYS330     -0.1963
     56  CA        15.1310  131.4400   11.0730 C.3   330  LYS330      0.1728
     57  C         14.3460  130.4150   11.8840 C.2   330  LYS330      0.2617
     58  O         14.9240  129.6400   12.6520 O.2   330  LYS330     -0.2715
     59  CB        14.9970  132.8240   11.7190 C.3   330  LYS330      0.0311
     60  CG        15.8510  133.8910   11.0460 C.3   330  LYS330      0.0038
     61  CD        15.7690  135.2480   11.7450 C.3   330  LYS330      0.0206
     62  CE        14.3790  135.8620   11.6340 C.3   330  LYS330      0.1093
     63  NZ        13.9350  135.9970   10.2060 N.3   330  LYS330     -0.1314
     64  N         13.0320  130.3980   11.6850 N.am  331  THR331     -0.1937
     65  CA        12.1490  129.5130   12.4210 C.3   331  THR331      0.2028
     66  C         12.2900  128.0350   12.0900 C.2   331  THR331      0.2642
     67  O         12.1930  127.1830   12.9720 O.2   331  THR331     -0.2714
     68  CB        10.6920  129.9760   12.2530 C.3   331  THR331      0.1808
     69  OG1       10.5840  131.3280   12.7200 O.3   331  THR331     -0.2208
     70  CG2        9.7340  129.0970   13.0620 C.3   331  THR331      0.0379
     71  N         12.5380  127.7200   10.8270 N.am  332  THR332     -0.1950
     72  CA        12.7020  126.3290   10.4360 C.3   332  THR332      0.1897
     73  C         14.0160  125.8160   11.0110 C.2   332  THR332      0.2313
     74  O         14.0500  124.7410   11.6130 O.2   332  THR332     -0.2863
     75  CB        12.7130  126.1830    8.9050 C.3   332  THR332      0.1794
     76  OG1       11.4780  126.6770    8.3690 O.3   332  THR332     -0.2208
     77  CG2       12.8680  124.7260    8.5150 C.3   332  THR332      0.0378
     78  N          5.8130  132.7640   16.3810 N.3   354  ASP354     -0.1239
     79  CA         5.0970  132.2590   15.2150 C.3   354  ASP354      0.1674
     80  C          4.0940  131.1830   15.6550 C.2   354  ASP354      0.2266
     81  O          4.4640  130.2040   16.3060 O.2   354  ASP354     -0.2867
     82  CB         6.1000  131.6600   14.2250 C.3   354  ASP354      0.1410
     83  CG         5.4370  131.0900   12.9860 C.2   354  ASP354      0.3668
     84  OD1        4.5600  130.2090   13.1250 O.co2 354  ASP354     -0.2456
     85  OD2        5.7980  131.5220   11.8720 O.co2 354  ASP354     -0.2456
     86  N         14.2150  132.0150   17.6320 N.3   428  ASP428     -0.1239
     87  CA        14.1460  132.1440   16.1760 C.3   428  ASP428      0.1674
     88  C         14.1100  133.5800   15.6600 C.2   428  ASP428      0.2266
     89  O         13.7080  133.8290   14.5280 O.2   428  ASP428     -0.2867
     90  CB        12.9540  131.3390   15.6180 C.3   428  ASP428      0.1410
     91  CG        11.5950  131.9200   16.0120 C.2   428  ASP428      0.3668
     92  OD1       11.5260  132.7750   16.9240 O.co2 428  ASP428     -0.2456
     93  OD2       10.5830  131.5110   15.4030 O.co2 428  ASP428     -0.2456
     94  N         20.5670  128.5200    3.9550 N.3   491  ASN491     -0.1225
     95  CA        19.3480  127.7590    3.6940 C.3   491  ASN491      0.1785
     96  C         18.9470  127.7280    2.2180 C.2   491  ASN491      0.2597
     97  O         19.5190  128.4350    1.3990 O.2   491  ASN491     -0.2718
     98  CB        18.2030  128.3440    4.5260 C.3   491  ASN491      0.1169
     99  CG        17.0410  127.3860    4.6770 C.2   491  ASN491      0.2627
    100  OD1       15.9980  127.7480    5.2060 O.2   491  ASN491     -0.2716
    101  ND2       17.2210  126.1580    4.2260 N.am  491  ASN491     -0.0877
    102  N         17.9670  126.8890    1.8920 N.am  492  ASN492     -0.1974
    103  CA        17.4570  126.7460    0.5270 C.3   492  ASN492      0.1688
    104  C         18.5330  126.6260   -0.5400 C.2   492  ASN492      0.2292
    105  O         18.6040  127.4470   -1.4550 O.2   492  ASN492     -0.2864
    106  CB        16.5430  127.9250    0.1780 C.3   492  ASN492      0.1181
    107  CG        15.2690  127.9270    0.9860 C.2   492  ASN492      0.2629
    108  OD1       14.4130  127.0630    0.8150 O.2   492  ASN492     -0.2716
    109  ND2       15.1400  128.8930    1.8850 N.am  492  ASN492     -0.0877
    110  N         19.5940  121.9220    2.3340 N.3   530  PRO530     -0.2102
    111  CA        19.0100  121.8030    0.9980 C.3   530  PRO530      0.1504
    112  C         17.6010  122.3240    0.8430 C.2   530  PRO530      0.2576
    113  O         16.8880  122.5250    1.8250 O.2   530  PRO530     -0.2718
    114  CB        19.0770  120.3030    0.7400 C.3   530  PRO530      0.0282
    115  CG        18.7330  119.7510    2.0910 C.3   530  PRO530      0.0208
    116  CD        19.5250  120.6360    3.0550 C.3   530  PRO530      0.0893
    117  N         17.2140  122.5480   -0.4060 N.am  531  VAL531     -0.1966
    118  CA        15.8620  122.9770   -0.7090 C.3   531  VAL531      0.1727
    119  C         15.0700  121.6900   -0.5550 C.2   531  VAL531      0.2616
    120  O         15.3760  120.6940   -1.2050 O.2   531  VAL531     -0.2715
    121  CB        15.7250  123.4690   -2.1670 C.3   531  VAL531      0.0290
    122  CG1       14.2640  123.7110   -2.4980 C.3   531  VAL531      0.0023
    123  CG2       16.5160  124.7520   -2.3630 C.3   531  VAL531      0.0023
    124  N         14.0720  121.7010    0.3210 N.am  532  LEU532     -0.1977
    125  CA        13.2520  120.5170    0.5600 C.3   532  LEU532      0.1596
    126  C         12.0780  120.3830   -0.4010 C.2   532  LEU532      0.2287
    127  O         11.4490  121.3750   -0.7780 O.2   532  LEU532     -0.2864
    128  CB        12.7160  120.5160    1.9920 C.3   532  LEU532      0.0297
    129  CG        13.6040  119.8730    3.0560 C.3   532  LEU532      0.0022
    130  CD1       12.8380  119.8030    4.3680 C.3   532  LEU532      0.0001
    131  CD2       14.0040  118.4700    2.6150 C.3   532  LEU532      0.0001
    132  N          7.4730  121.4250    2.0860 N.3   535  GLU535     -0.1231
    133  CA         7.7940  122.4210    3.1010 C.3   535  GLU535      0.1684
    134  C          7.9110  121.7830    4.4840 C.2   535  GLU535      0.2434
    135  O          7.0480  121.0090    4.9020 O.2   535  GLU535     -0.2733
    136  CB         6.7360  123.5200    3.1280 C.3   535  GLU535      0.0402
    137  CG         6.7800  124.4370    1.9270 C.3   535  GLU535      0.1161
    138  CD         5.9500  125.6890    2.1290 C.2   535  GLU535      0.3649
    139  OE1        5.9540  126.5580    1.2280 O.co2 535  GLU535     -0.2457
    140  OE2        5.2960  125.8030    3.1910 O.co2 535  GLU535     -0.2457
    141  N          8.9870  122.1120    5.2140 N.am  536  PRO536     -0.2718
    142  CA         9.2530  121.5870    6.5540 C.3   536  PRO536      0.1535
    143  C          8.1730  121.9340    7.5690 C.2   536  PRO536      0.2599
    144  O          8.3690  122.7840    8.4310 O.2   536  PRO536     -0.2715
    145  CB        10.6020  122.2070    6.8980 C.3   536  PRO536      0.0310
    146  CG        10.5510  123.5190    6.1830 C.3   536  PRO536      0.0237
    147  CD         9.9860  123.1310    4.8470 C.3   536  PRO536      0.0939
    148  N          7.0320  121.2660    7.4600 N.am  537  THR537     -0.1951
    149  CA         5.9210  121.4940    8.3690 C.3   537  THR537      0.1897
    150  C          5.8500  120.3440    9.3600 C.2   537  THR537      0.2313
    151  O          5.4740  120.5240   10.5180 O.2   537  THR537     -0.2863
    152  CB         4.5910  121.5590    7.6110 C.3   537  THR537      0.1794
    153  OG1        4.6430  122.6170    6.6450 O.3   537  THR537     -0.2208
    154  CG2        3.4410  121.8030    8.5810 C.3   537  THR537      0.0378
    155  N         16.3100  118.0610    7.3600 N.3   545  LEU545     -0.1245
    156  CA        17.0640  119.2760    7.0510 C.3   545  LEU545      0.1561
    157  C         18.4960  119.1990    7.5780 C.2   545  LEU545      0.2260
    158  O         19.4560  119.5150    6.8650 O.2   545  LEU545     -0.2867
    159  CB        16.3840  120.5020    7.6700 C.3   545  LEU545      0.0270
    160  CG        15.0900  120.9830    7.0290 C.3   545  LEU545      0.0019
    161  CD1       14.5630  122.1610    7.7950 C.3   545  LEU545      0.0001
    162  CD2       15.3500  121.3630    5.5850 C.3   545  LEU545      0.0001
@<TRIPOS>BOND
     1    25    26    1
     2    27    26    1
     3    27    28    2
     4    26    29    1
     5    29    30    1
     6     1     2    1
     7    35    33    1
     8   122   121    1
     9    30    31    1
    10   123   121    1
    11    32    33    2
    12    32    31    1
    13   121   118    1
    14    33    34    1
    15     2     5    1
    16     2     3    1
    17     5     6    1
    18   105   104    2
    19   120   119    2
    20     3     4    2
    21     3    10   am
    22     6     7    1
    23   127   126    2
    24   118   119    1
    25   118   117    1
    26   119   124   am
    27   104   103    1
    28   117   112   am
    29   126   125    1
    30    10    11    1
    31   106   103    1
    32   106   107    1
    33   124   125    1
    34   103   102    1
    35   125   128    1
    36     7     9   am
    37     7     8    2
    38    11    14    1
    39    11    12    1
    40   114   111    1
    41   114   115    1
    42   108   107    2
    43   112   111    1
    44   112   113    2
    45   107   109   am
    46   111   110    1
    47   139   138   ar
    48    97    96    2
    49    14    15    1
    50    12    13    2
    51    12    19   am
    52   102    96   am
    53   137   138    1
    54   137   136    1
    55   128   129    1
    56    18    17    1
    57   132   133    1
    58   115   116    1
    59    15    16    1
    60   138   140   ar
    61    96    95    1
    62    19    20    1
    63   110   116    1
    64   131   129    1
    65    21    22    2
    66    21    20    1
    67    16    17    1
    68   129   130    1
    69   133   136    1
    70   133   134    1
    71    24    23    1
    72    20    23    1
    73    95    94    1
    74    95    98    1
    75   101    99   am
    76    43    42    2
    77   134   135    2
    78   134   141   am
    79    98    99    1
    80    99   100    2
    81   147   141    1
    82   147   146    1
    83    39    38    2
    84    49    48    1
    85   141   142    1
    86    42    41    1
    87    42    44   am
    88    45    44    1
    89    45    48    1
    90    45    46    1
    91    47    46    2
    92   162   160    1
    93    41    40    1
    94    48    50    1
    95    46    51   am
    96    38    40   am
    97    38    37    1
    98   146   145    1
    99   142   145    1
   100   142   143    1
   101   153   152    1
   102   158   157    2
   103    51    52    1
   104    36    37    1
   105   160   159    1
   106   160   161    1
   107   156   155    1
   108   156   157    1
   109   156   159    1
   110   148   143   am
   111   148   149    1
   112    52    53    1
   113   143   144    2
   114   152   149    1
   115   152   154    1
   116    76    75    1
   117   149   150    1
   118    77    75    1
   119    75    72    1
   120    53    54    2
   121    53    55   am
   122   150   151    2
   123    55    56    1
   124    63    62    1
   125    72    71    1
   126    72    73    1
   127    71    66   am
   128    73    74    2
   129    60    59    1
   130    60    61    1
   131    56    59    1
   132    56    57    1
   133    62    61    1
   134    64    57   am
   135    64    65    1
   136    85    83   ar
   137    57    58    2
   138    66    65    1
   139    66    67    2
   140    68    65    1
   141    68    69    1
   142    68    70    1
   143    83    84   ar
   144    83    82    1
   145    82    79    1
   146    89    88    2
   147    79    80    1
   148    79    78    1
   149    93    91   ar
   150    90    91    1
   151    90    87    1
   152    80    81    2
   153    88    87    1
   154    91    92   ar
   155    87    86    1
