@<TRIPOS>MOLECULE
tmp/1ii5A00.pdb
 110 103 0 0 0
SMALL
GASTEIGER

@<TRIPOS>ATOM
      1  N         80.3960   -0.8640   -7.7770 N.3    11  VAL11      -0.1231
      2  CA        80.6010   -1.6120   -9.0080 C.3    11  VAL11       0.1692
      3  C         81.0570   -3.0330   -8.6420 C.2    11  VAL11       0.2593
      4  O         81.5800   -3.2540   -7.5470 O.2    11  VAL11      -0.2718
      5  CB        81.6490   -0.9040   -9.9010 C.3    11  VAL11       0.0266
      6  CG1       83.0390   -1.0120   -9.2800 C.3    11  VAL11       0.0020
      7  CG2       81.6220   -1.4600  -11.3020 C.3    11  VAL11       0.0020
      8  N         80.8100   -4.0000   -9.5230 N.am   12  GLY12      -0.1942
      9  CA        81.2210   -5.3600   -9.2260 C.3    12  GLY12       0.2014
     10  C         80.1030   -6.3820   -9.3050 C.2    12  GLY12       0.2638
     11  O         78.9430   -6.0340   -9.5040 O.2    12  GLY12      -0.2714
     12  N         80.4570   -7.6430   -9.0750 N.am   13  ASN13      -0.1972
     13  CA        79.5130   -8.7610   -9.1440 C.3    13  ASN13       0.1688
     14  C         79.5060   -9.5980   -7.8670 C.2    13  ASN13       0.2292
     15  O         80.3580   -9.4230   -6.9960 O.2    13  ASN13      -0.2864
     16  CB        79.9080   -9.6710  -10.3140 C.3    13  ASN13       0.1181
     17  CG        79.7510   -8.9960  -11.6560 C.2    13  ASN13       0.2629
     18  OD1       78.7380   -9.1760  -12.3310 O.2    13  ASN13      -0.2716
     19  ND2       80.7490   -8.2030  -12.0500 N.am   13  ASN13      -0.0877
     20  N         84.3470   -0.0310  -13.7480 N.3    49  ILE49      -0.1245
     21  CA        85.3940    0.3960  -12.8290 C.3    49  ILE49       0.1561
     22  C         86.0530    1.6660  -13.3650 C.2    49  ILE49       0.2260
     23  O         86.2720    2.6070  -12.6100 O.2    49  ILE49      -0.2867
     24  CB        86.4270   -0.7290  -12.6020 C.3    49  ILE49       0.0252
     25  CG1       85.7770   -1.8450  -11.7830 C.3    49  ILE49       0.0019
     26  CG2       87.6600   -0.1970  -11.8860 C.3    49  ILE49       0.0019
     27  CD1       86.6160   -3.0990  -11.6440 C.3    49  ILE49       0.0001
     28  N         84.8310   -5.1500   -5.6670 N.3    67  PRO67      -0.2116
     29  CA        85.9680   -6.0600   -5.8460 C.3    67  PRO67       0.1372
     30  C         86.8790   -5.4790   -6.9340 C.2    67  PRO67       0.2244
     31  O         87.0470   -6.0590   -8.0080 O.2    67  PRO67      -0.2868
     32  CB        85.2910   -7.3540   -6.2930 C.3    67  PRO67       0.0268
     33  CG        84.1350   -6.8640   -7.0960 C.3    67  PRO67       0.0207
     34  CD        83.6050   -5.7150   -6.2660 C.3    67  PRO67       0.0892
     35  N         90.2730   -4.7350   -8.4990 N.3    69  SER69      -0.1217
     36  CA        91.6600   -5.1890   -8.5370 C.3    69  SER69       0.1889
     37  C         92.6180   -3.9970   -8.5600 C.2    69  SER69       0.2288
     38  O         92.4120   -3.0400   -9.3090 O.2    69  SER69      -0.2866
     39  CB        91.9090   -6.0550   -9.7670 C.3    69  SER69       0.2089
     40  OG        91.1330   -7.2390   -9.7200 O.3    69  SER69      -0.2183
     41  N         95.7440    1.0640  -13.1480 N.3    74  ARG74      -0.1245
     42  CA        94.7380    1.8140  -12.4010 C.3    74  ARG74       0.1563
     43  C         95.3750    2.7460  -11.3760 C.2    74  ARG74       0.2260
     44  O         94.9140    3.8720  -11.1800 O.2    74  ARG74      -0.2867
     45  CB        93.7430    0.8770  -11.7210 C.3    74  ARG74       0.0307
     46  CG        92.8450    0.1820  -12.7080 C.3    74  ARG74       0.0489
     47  CD        91.8880   -0.7520  -12.0340 C.3    74  ARG74       0.2205
     48  NE        91.1130   -1.4870  -13.0290 N.pl3  74  ARG74      -0.0865
     49  CZ        90.4680   -2.6170  -12.7700 C.cat  74  ARG74       0.5346
     50  NH1       90.5150   -3.1320  -11.5520 N.pl3  74  ARG74       0.1354
     51  NH2       89.7590   -3.2100  -13.7220 N.pl3  74  ARG74       0.1354
     52  N         87.3480   -5.4690  -17.2310 N.3   120  THR120     -0.1203
     53  CA        87.7750   -6.2300  -16.0630 C.3   120  THR120      0.1994
     54  C         89.2040   -6.6120  -16.3850 C.2   120  THR120      0.2618
     55  O         89.6130   -6.5790  -17.5500 O.2   120  THR120     -0.2717
     56  CB        86.9180   -7.4950  -15.7970 C.3   120  THR120      0.1784
     57  OG1       86.9890   -8.3740  -16.9220 O.3   120  THR120     -0.2211
     58  CG2       85.4670   -7.1120  -15.5210 C.3   120  THR120      0.0376
     59  N         89.9790   -6.9290  -15.3580 N.am  121  THR121     -0.1952
     60  CA        91.3700   -7.2950  -15.5610 C.3   121  THR121      0.1897
     61  C         91.5000   -8.5370  -16.4410 C.2   121  THR121      0.2313
     62  O         92.5150   -8.7210  -17.1090 O.2   121  THR121     -0.2863
     63  CB        92.0840   -7.5210  -14.2170 C.3   121  THR121      0.1794
     64  OG1       91.3820   -8.5180  -13.4690 O.3   121  THR121     -0.2208
     65  CG2       92.1360   -6.2250  -13.4120 C.3   121  THR121      0.0378
     66  N         87.2710  -14.9520  -15.4820 N.3   156  PHE156     -0.1227
     67  CA        86.7460  -13.9520  -14.5580 C.3   156  PHE156      0.1736
     68  C         87.2290  -14.2790  -13.1470 C.2   156  PHE156      0.2595
     69  O         87.7770  -15.3510  -12.8980 O.2   156  PHE156     -0.2718
     70  CB        85.2150  -13.9780  -14.6060 C.3   156  PHE156      0.0547
     71  CG        84.5520  -12.7550  -14.0290 C.ar  156  PHE156     -0.0202
     72  CD1       84.3390  -11.6290  -14.8160 C.ar  156  PHE156     -0.0042
     73  CD2       84.0890  -12.7480  -12.7160 C.ar  156  PHE156     -0.0042
     74  CE1       83.6700  -10.5180  -14.3050 C.ar  156  PHE156     -0.0003
     75  CE2       83.4210  -11.6420  -12.2010 C.ar  156  PHE156     -0.0003
     76  CZ        83.2110  -10.5280  -12.9980 C.ar  156  PHE156     -0.0000
     77  N         87.0390  -13.3380  -12.2320 N.am  157  ASP157     -0.1974
     78  CA        87.4280  -13.5100  -10.8350 C.3   157  ASP157      0.1709
     79  C         86.8720  -14.8220  -10.2880 C.2   157  ASP157      0.2293
     80  O         85.6770  -15.0820  -10.3910 O.2   157  ASP157     -0.2864
     81  CB        86.8910  -12.3470  -10.0020 C.3   157  ASP157      0.1436
     82  CG        87.4090  -11.0080  -10.4760 C.2   157  ASP157      0.3671
     83  OD1       88.0200  -10.2980   -9.6470 O.co2 157  ASP157     -0.2456
     84  OD2       87.2140  -10.6750  -11.6730 O.co2 157  ASP157     -0.2456
     85  N         83.6160  -15.0410   -7.9140 N.3   160  ALA160     -0.1245
     86  CA        82.3780  -14.7940   -8.6500 C.3   160  ALA160      0.1562
     87  C         81.9860  -16.0220   -9.4720 C.2   160  ALA160      0.2260
     88  O         80.8080  -16.3520   -9.5710 O.2   160  ALA160     -0.2867
     89  CB        82.5230  -13.5690   -9.5540 C.3   160  ALA160      0.0290
     90  N         95.2760  -11.2700   -7.5170 N.3   183  GLU183     -0.1245
     91  CA        95.1060   -9.8260   -7.4660 C.3   183  GLU183      0.1567
     92  C         94.4350   -9.3760   -6.1930 C.2   183  GLU183      0.2260
     93  O         93.4770   -9.9930   -5.7410 O.2   183  GLU183     -0.2867
     94  CB        94.2270   -9.3680   -8.6310 C.3   183  GLU183      0.0388
     95  CG        94.8160   -9.6550   -9.9830 C.3   183  GLU183      0.1160
     96  CD        93.8690   -9.3960  -11.1390 C.2   183  GLU183      0.3649
     97  OE1       92.7310   -8.9110  -10.9440 O.co2 183  GLU183     -0.2457
     98  OE2       94.2780   -9.7010  -12.2680 O.co2 183  GLU183     -0.2457
     99  N         92.1290   -6.7850   -3.8780 N.3   185  TYR185     -0.1241
    100  CA        90.9770   -5.8960   -4.0820 C.3   185  TYR185      0.1605
    101  C         91.1120   -4.7230   -3.1210 C.2   185  TYR185      0.2264
    102  O         91.4300   -4.9180   -1.9540 O.2   185  TYR185     -0.2867
    103  CB        89.6490   -6.5630   -3.7160 C.3   185  TYR185      0.0534
    104  CG        89.1380   -7.6380   -4.6340 C.ar  185  TYR185     -0.0201
    105  CD1       88.1160   -8.4780   -4.2060 C.ar  185  TYR185     -0.0009
    106  CD2       89.6600   -7.8230   -5.9170 C.ar  185  TYR185     -0.0009
    107  CE1       87.6190   -9.4730   -5.0160 C.ar  185  TYR185      0.0417
    108  CE2       89.1630   -8.8280   -6.7510 C.ar  185  TYR185      0.0417
    109  CZ        88.1380   -9.6490   -6.2800 C.ar  185  TYR185      0.1957
    110  OH        87.6250  -10.6700   -7.0430 O.3   185  TYR185     -0.2866
@<TRIPOS>BOND
     1    55    54    2
     2    52    53    1
     3    62    61    2
     4    57    56    1
     5    61    60    1
     6    54    53    1
     7    54    59   am
     8    53    56    1
     9    56    58    1
    10    60    59    1
    11    60    63    1
    12    66    67    1
    13    72    74   ar
    14    72    71   ar
    15    70    67    1
    16    70    71    1
    17    67    68    1
    18    74    76   ar
    19    63    64    1
    20    63    65    1
    21    71    73   ar
    22    20    21    1
    23    51    49    1
    24    22    21    1
    25    22    23    2
    26    41    42    1
    27    68    69    2
    28    68    77   am
    29    48    49    2
    30    48    47    1
    31    76    75   ar
    32    21    24    1
    33    49    50    1
    34    73    75   ar
    35    46    47    1
    36    46    45    1
    37    24    26    1
    38    24    25    1
    39    42    45    1
    40    42    43    1
    41    18    17    2
    42    98    96   ar
    43    77    78    1
    44    19    17   am
    45    25    27    1
    46    84    82   ar
    47    17    16    1
    48    43    44    2
    49     7     5    1
    50    96    97   ar
    51    96    95    1
    52    78    79    1
    53    78    81    1
    54    82    81    1
    55    82    83   ar
    56    80    79    2
    57    16    13    1
    58    95    94    1
    59     5     6    1
    60     5     2    1
    61    39    40    1
    62    39    36    1
    63    88    87    2
    64    89    86    1
    65     8     9    1
    66     8     3   am
    67    11    10    2
    68    87    86    1
    69    38    37    2
    70    10     9    1
    71    10    12   am
    72    13    12    1
    73    13    14    1
    74     2     3    1
    75     2     1    1
    76    86    85    1
    77     3     4    2
    78    94    91    1
    79    37    36    1
    80    36    35    1
    81    31    30    2
    82    14    15    2
    83    90    91    1
    84    91    92    1
    85    33    32    1
    86    33    34    1
    87   110   109    1
    88    30    29    1
    89   108   109   ar
    90   108   106   ar
    91    32    29    1
    92   109   107   ar
    93    34    28    1
    94    92    93    2
    95   106   104   ar
    96    29    28    1
    97   107   105   ar
    98   104   105   ar
    99   104   103    1
   100   100    99    1
   101   100   103    1
   102   100   101    1
   103   101   102    2
