@<TRIPOS>MOLECULE
tmp/1ii9A01.pdb
 184 177 0 0 0
SMALL
GASTEIGER

@<TRIPOS>ATOM
      1  N          7.1390   91.6080   38.5530 N.3   202  GLN202     -0.1245
      2  CA         7.3280   92.3130   37.2990 C.3   202  GLN202      0.1566
      3  C          6.3810   91.6110   36.3430 C.2   202  GLN202      0.2260
      4  O          6.4610   90.3960   36.1760 O.2   202  GLN202     -0.2867
      5  CB         8.7860   92.1770   36.8290 C.3   202  GLN202      0.0367
      6  CG         9.2320   93.2030   35.7850 C.3   202  GLN202      0.0905
      7  CD         9.2350   92.6640   34.3570 C.2   202  GLN202      0.2608
      8  OE1        9.9590   91.7170   34.0430 O.2   202  GLN202     -0.2717
      9  NE2        8.4330   93.2740   33.4840 N.am  202  GLN202     -0.0878
     10  N          6.2050   90.9600   33.3870 N.3   204  SER204     -0.1217
     11  CA         6.8650   90.0310   32.4720 C.3   204  SER204      0.1889
     12  C          7.3860   88.7110   33.0710 C.2   204  SER204      0.2288
     13  O          7.1380   87.6290   32.5190 O.2   204  SER204     -0.2866
     14  CB         8.0070   90.7650   31.7720 C.3   204  SER204      0.2089
     15  OG         8.6960   89.9070   30.8880 O.3   204  SER204     -0.2183
     16  N          4.2040   99.8080   40.5550 N.3   249  ARG249     -0.1245
     17  CA         4.3330   98.8760   39.4490 C.3   249  ARG249      0.1563
     18  C          4.2470   97.4280   39.9280 C.2   249  ARG249      0.2260
     19  O          3.7190   96.5600   39.2250 O.2   249  ARG249     -0.2867
     20  CB         5.6590   99.1310   38.7310 C.3   249  ARG249      0.0307
     21  CG         5.8130   98.4050   37.4200 C.3   249  ARG249      0.0489
     22  CD         6.6700   99.2170   36.4520 C.3   249  ARG249      0.2205
     23  NE         7.9820   99.5660   37.0000 N.pl3 249  ARG249     -0.0865
     24  CZ         8.8940  100.2890   36.3530 C.cat 249  ARG249      0.5346
     25  NH1        8.6380  100.7400   35.1330 N.pl3 249  ARG249      0.1354
     26  NH2       10.0610  100.5650   36.9220 N.pl3 249  ARG249      0.1354
     27  N         16.8400   85.4570   28.6820 N.3   317  GLY317     -0.1210
     28  CA        15.4760   85.9370   28.6180 C.3   317  GLY317      0.1956
     29  C         15.2010   87.0080   29.6500 C.2   317  GLY317      0.2612
     30  O         15.6910   86.9310   30.7930 O.2   317  GLY317     -0.2717
     31  N         14.4470   88.0240   29.2230 N.am  318  GLY318     -0.1942
     32  CA        14.0640   89.1140   30.1030 C.3   318  GLY318      0.2014
     33  C         15.0550   90.2140   30.4270 C.2   318  GLY318      0.2639
     34  O         14.6550   91.2080   31.0180 O.2   318  GLY318     -0.2714
     35  N         16.3280   90.0880   30.0640 N.am  319  VAL319     -0.1963
     36  CA        17.2640   91.1660   30.4050 C.3   319  VAL319      0.1727
     37  C         16.9800   92.4870   29.6850 C.2   319  VAL319      0.2617
     38  O         17.6330   93.4880   29.9530 O.2   319  VAL319     -0.2715
     39  CB        18.7250   90.7670   30.1440 C.3   319  VAL319      0.0290
     40  CG1       19.0700   89.5510   30.9710 C.3   319  VAL319      0.0023
     41  CG2       18.9470   90.4950   28.6710 C.3   319  VAL319      0.0023
     42  N         16.0060   92.4810   28.7720 N.am  320  GLY320     -0.1940
     43  CA        15.6430   93.6910   28.0500 C.3   320  GLY320      0.2014
     44  C         16.1850   93.8370   26.6370 C.2   320  GLY320      0.2639
     45  O         16.3840   94.9610   26.1440 O.2   320  GLY320     -0.2714
     46  N         16.4240   92.7160   25.9690 N.am  321  LYS321     -0.1963
     47  CA        16.9660   92.7710   24.6180 C.3   321  LYS321      0.1728
     48  C         16.1330   93.6220   23.6890 C.2   321  LYS321      0.2617
     49  O         16.6390   94.5520   23.0650 O.2   321  LYS321     -0.2715
     50  CB        17.1210   91.3540   24.0440 C.3   321  LYS321      0.0311
     51  CG        18.2120   90.5470   24.7540 C.3   321  LYS321      0.0038
     52  CD        18.3770   89.1500   24.1950 C.3   321  LYS321      0.0206
     53  CE        17.0650   88.3970   24.1800 C.3   321  LYS321      0.1093
     54  NZ        16.3970   88.3910   25.4880 N.3   321  LYS321     -0.1314
     55  N         14.8440   93.3280   23.6230 N.am  322  THR322     -0.1937
     56  CA        13.9540   94.0570   22.7270 C.3   322  THR322      0.2028
     57  C         13.9070   95.5680   23.0190 C.2   322  THR322      0.2642
     58  O         13.8320   96.3800   22.1020 O.2   322  THR322     -0.2714
     59  CB        12.5370   93.3910   22.7410 C.3   322  THR322      0.1808
     60  OG1       12.6450   92.0760   22.1790 O.3   322  THR322     -0.2208
     61  CG2       11.5310   94.1730   21.9290 C.3   322  THR322      0.0379
     62  N         13.9820   95.9380   24.2890 N.am  323  THR323     -0.1950
     63  CA        13.9730   97.3340   24.6580 C.3   323  THR323      0.1897
     64  C         15.2850   98.0120   24.2340 C.2   323  THR323      0.2313
     65  O         15.2650   99.1200   23.6920 O.2   323  THR323     -0.2863
     66  CB        13.7620   97.4860   26.1640 C.3   323  THR323      0.1794
     67  OG1       12.5100   96.8870   26.5220 O.3   323  THR323     -0.2208
     68  CG2       13.7380   98.9480   26.5630 C.3   323  THR323      0.0378
     69  N         10.7130   90.2400   17.6780 N.3   344  SER344     -0.1202
     70  CA        10.0800   88.9350   17.7470 C.3   344  SER344      0.2020
     71  C          9.0750   88.9960   18.8800 C.2   344  SER344      0.2618
     72  O          8.8500   88.0110   19.5750 O.2   344  SER344     -0.2717
     73  CB        11.1400   87.8650   18.0270 C.3   344  SER344      0.2103
     74  OG        11.9560   88.2270   19.1370 O.3   344  SER344     -0.2182
     75  N          8.4750   90.1700   19.0530 N.am  345  ASP345     -0.1973
     76  CA         7.5110   90.4100   20.1160 C.3   345  ASP345      0.1709
     77  C          6.7650   91.7180   19.8190 C.2   345  ASP345      0.2293
     78  O          7.3660   92.6890   19.3680 O.2   345  ASP345     -0.2864
     79  CB         8.2830   90.4660   21.4460 C.3   345  ASP345      0.1436
     80  CG         7.5290   91.1740   22.5590 C.2   345  ASP345      0.3671
     81  OD1        6.3200   90.9210   22.7510 O.co2 345  ASP345     -0.2456
     82  OD2        8.1690   91.9830   23.2670 O.co2 345  ASP345     -0.2456
     83  N         16.6120   91.8860   17.8820 N.3   420  ASP420     -0.1225
     84  CA        16.5610   91.7710   19.3370 C.3   420  ASP420      0.1805
     85  C         16.8430   90.4070   19.9030 C.2   420  ASP420      0.2598
     86  O         16.7000   90.1920   21.1090 O.2   420  ASP420     -0.2718
     87  CB        15.2290   92.2750   19.9110 C.3   420  ASP420      0.1424
     88  CG        14.0350   91.4420   19.4690 C.2   420  ASP420      0.3668
     89  OD1       14.2210   90.3330   18.9300 O.co2 420  ASP420     -0.2456
     90  OD2       12.9000   91.9070   19.6730 O.co2 420  ASP420     -0.2456
     91  N         17.2370   89.4750   19.0520 N.am  421  THR421     -0.1953
     92  CA        17.6000   88.1510   19.5430 C.3   421  THR421      0.1897
     93  C         18.3980   87.3450   18.5200 C.2   421  THR421      0.2313
     94  O         18.2820   87.5540   17.3080 O.2   421  THR421     -0.2863
     95  CB        16.3710   87.3580   19.9810 C.3   421  THR421      0.1794
     96  OG1       16.8060   86.1890   20.6810 O.3   421  THR421     -0.2208
     97  CG2       15.5270   86.9640   18.7810 C.3   421  THR421      0.0378
     98  N         21.6940   96.7600   31.8920 N.3   482  ASN482     -0.1225
     99  CA        20.3480   97.3110   32.0370 C.3   482  ASN482      0.1785
    100  C         19.7870   97.3450   33.4640 C.2   482  ASN482      0.2597
    101  O         20.3110   96.6960   34.3810 O.2   482  ASN482     -0.2718
    102  CB        19.4210   96.5050   31.1250 C.3   482  ASN482      0.1169
    103  CG        18.0930   97.1940   30.8500 C.2   482  ASN482      0.2627
    104  OD1       17.9400   98.3880   31.0520 O.2   482  ASN482     -0.2716
    105  ND2       17.1350   96.4320   30.3650 N.am  482  ASN482     -0.0877
    106  N         18.7140   98.1110   33.6440 N.am  483  ASN483     -0.1974
    107  CA        18.0780   98.2360   34.9460 C.3   483  ASN483      0.1688
    108  C         19.0760   98.5920   36.0240 C.2   483  ASN483      0.2292
    109  O         19.1300   97.9070   37.0450 O.2   483  ASN483     -0.2864
    110  CB        17.4110   96.9230   35.3610 C.3   483  ASN483      0.1181
    111  CG        16.3150   96.5090   34.4230 C.2   483  ASN483      0.2629
    112  OD1       15.3070   97.2040   34.2800 O.2   483  ASN483     -0.2716
    113  ND2       16.5040   95.3690   33.7640 N.am  483  ASN483     -0.0877
    114  N         22.5340  101.5180   31.5390 N.3   520  VAL520     -0.1231
    115  CA        21.1790  102.0240   31.3910 C.3   520  VAL520      0.1678
    116  C         20.5410  102.0120   32.7830 C.2   520  VAL520      0.2434
    117  O         20.8670  101.1740   33.6240 O.2   520  VAL520     -0.2733
    118  CB        20.3530  101.1700   30.3940 C.3   520  VAL520      0.0265
    119  CG1       19.0200  101.8360   30.1270 C.3   520  VAL520      0.0020
    120  CG2       21.1110  101.0220   29.0690 C.3   520  VAL520      0.0020
    121  N         19.6250  102.9500   33.0490 N.am  521  PRO521     -0.2718
    122  CA        19.0050  102.9800   34.3690 C.3   521  PRO521      0.1535
    123  C         17.6560  102.2980   34.4550 C.2   521  PRO521      0.2598
    124  O         16.9960  102.0920   33.4430 O.2   521  PRO521     -0.2715
    125  CB        18.8560  104.4640   34.6140 C.3   521  PRO521      0.0310
    126  CG        18.3530  104.9100   33.2610 C.3   521  PRO521      0.0237
    127  CD        19.3040  104.1840   32.3060 C.3   521  PRO521      0.0939
    128  N         17.2660  101.9720   35.6890 N.am  522  VAL522     -0.1964
    129  CA        15.9660  101.3920   35.9960 C.3   522  VAL522      0.1727
    130  C         15.0660  102.5850   35.7490 C.2   522  VAL522      0.2616
    131  O         15.0330  103.5030   36.5580 O.2   522  VAL522     -0.2715
    132  CB        15.8450  101.0380   37.4790 C.3   522  VAL522      0.0290
    133  CG1       14.4200  100.6580   37.7840 C.3   522  VAL522      0.0023
    134  CG2       16.7920   99.9070   37.8380 C.3   522  VAL522      0.0023
    135  N         14.3440  102.5810   34.6350 N.am  523  LEU523     -0.1963
    136  CA        13.4980  103.7120   34.2820 C.3   523  LEU523      0.1728
    137  C         12.4160  104.0920   35.2820 C.2   523  LEU523      0.2616
    138  O         12.2530  105.2760   35.5910 O.2   523  LEU523     -0.2715
    139  CB        12.8660  103.4930   32.9010 C.3   523  LEU523      0.0311
    140  CG        12.5880  104.7680   32.0760 C.3   523  LEU523      0.0022
    141  CD1       12.3150  104.4090   30.6270 C.3   523  LEU523      0.0001
    142  CD2       11.4070  105.5390   32.6490 C.3   523  LEU523      0.0001
    143  N         11.6860  103.1160   35.8110 N.am  524  ALA524     -0.1963
    144  CA        10.6010  103.4510   36.7330 C.3   524  ALA524      0.1728
    145  C          9.5380  104.1170   35.8480 C.2   524  ALA524      0.2617
    146  O          9.2050  105.3040   35.9870 O.2   524  ALA524     -0.2715
    147  CB        11.0880  104.4190   37.8140 C.3   524  ALA524      0.0334
    148  N          9.0530  103.3000   34.9180 N.am  525  SER525     -0.1936
    149  CA         8.0510  103.6300   33.9130 C.3   525  SER525      0.2055
    150  C          8.4070  102.6680   32.7810 C.2   525  SER525      0.2643
    151  O          9.5730  102.5650   32.4130 O.2   525  SER525     -0.2714
    152  CB         8.2000  105.0760   33.4340 C.3   525  SER525      0.2130
    153  OG         7.2390  105.3700   32.4360 O.3   525  SER525     -0.2179
    154  N          7.4250  101.9470   32.2460 N.am  526  GLU526     -0.1963
    155  CA         7.7050  100.9960   31.1690 C.3   526  GLU526      0.1718
    156  C          8.0800  101.7030   29.8800 C.2   526  GLU526      0.2458
    157  O          7.2740  102.4450   29.3180 O.2   526  GLU526     -0.2730
    158  CB         6.5000  100.0850   30.9080 C.3   526  GLU526      0.0428
    159  CG         6.7830   98.6050   31.1400 C.3   526  GLU526      0.1163
    160  CD         7.1460   98.3010   32.5880 C.2   526  GLU526      0.3649
    161  OE1        7.4050   97.1200   32.9110 O.co2 526  GLU526     -0.2457
    162  OE2        7.1690   99.2490   33.4060 O.co2 526  GLU526     -0.2457
    163  N          9.3170  101.4820   29.4000 N.am  527  PRO527     -0.2716
    164  CA         9.8320  102.0840   28.1690 C.3   527  PRO527      0.1536
    165  C          8.9850  101.6480   26.9810 C.2   527  PRO527      0.2599
    166  O          9.4900  101.0890   26.0070 O.2   527  PRO527     -0.2715
    167  CB        11.2520  101.5450   28.0930 C.3   527  PRO527      0.0310
    168  CG        11.6110  101.3420   29.5220 C.3   527  PRO527      0.0237
    169  CD        10.3710  100.7100   30.0770 C.3   527  PRO527      0.0939
    170  N          7.6900  101.9110   27.0830 N.am  528  THR528     -0.1951
    171  CA         6.7320  101.5620   26.0590 C.3   528  THR528      0.1897
    172  C          6.6460  102.6500   25.0010 C.2   528  THR528      0.2313
    173  O          6.6100  102.3700   23.8010 O.2   528  THR528     -0.2863
    174  CB         5.3650  101.3360   26.6970 C.3   528  THR528      0.1794
    175  OG1        5.4020  100.1110   27.4350 O.3   528  THR528     -0.2208
    176  CG2        4.2680  101.2800   25.6440 C.3   528  THR528      0.0378
    177  N         16.1510  106.2810   28.1140 N.3   536  LEU536     -0.1245
    178  CA        17.1420  105.2670   28.4740 C.3   536  LEU536      0.1561
    179  C         18.5440  105.6160   27.9910 C.2   536  LEU536      0.2260
    180  O         19.5350  105.3540   28.6620 O.2   536  LEU536     -0.2867
    181  CB        16.7700  103.9040   27.8610 C.3   536  LEU536      0.0270
    182  CG        15.4490  103.2560   28.2670 C.3   536  LEU536      0.0019
    183  CD1       15.3090  101.9160   27.5740 C.3   536  LEU536      0.0001
    184  CD2       15.4030  103.0800   29.7810 C.3   536  LEU536      0.0001
@<TRIPOS>BOND
     1    94    93    2
     2    69    70    1
     3    70    73    1
     4    70    71    1
     5    83    84    1
     6    73    74    1
     7    93    92    1
     8    97    95    1
     9    71    75   am
    10    71    72    2
    11    89    88   ar
    12    91    92    1
    13    91    85   am
    14    75    76    1
    15    84    85    1
    16    84    87    1
    17    78    77    2
    18    88    90   ar
    19    88    87    1
    20    92    95    1
    21    77    76    1
    22    85    86    2
    23    95    96    1
    24    76    79    1
    25    79    80    1
    26    61    59    1
    27    58    57    2
    28    60    59    1
    29    80    81   ar
    30    80    82   ar
    31    56    59    1
    32    56    57    1
    33    56    55    1
    34    57    62   am
    35    49    48    2
    36    55    48   am
    37    48    47    1
    38    65    64    2
    39   173   172    2
    40    50    47    1
    41    50    51    1
    42    53    52    1
    43    53    54    1
    44    52    51    1
    45    64    63    1
    46    62    63    1
    47    47    46    1
    48    63    66    1
    49   172   171    1
    50   176   174    1
    51    46    44   am
    52   166   165    2
    53   171   174    1
    54   171   170    1
    55    45    44    2
    56    66    67    1
    57    66    68    1
    58    44    43    1
    59   174   175    1
    60   165   170   am
    61   165   164    1
    62   183   182    1
    63   181   182    1
    64   181   178    1
    65   179   178    1
    66   179   180    2
    67    43    42    1
    68   167   164    1
    69   167   168    1
    70   177   178    1
    71   164   163    1
    72   182   184    1
    73    28    27    1
    74    28    29    1
    75    41    39    1
    76    42    37   am
    77   120   118    1
    78    31    29   am
    79    31    32    1
    80   157   156    2
    81   163   156   am
    82   163   169    1
    83   168   169    1
    84    29    30    2
    85    37    38    2
    86    37    36    1
    87   156   155    1
    88    35    36    1
    89    35    33   am
    90    32    33    1
    91   119   118    1
    92    39    36    1
    93    39    40    1
    94   105   103   am
    95   118   115    1
    96    33    34    2
    97   141   140    1
    98   103   104    2
    99   103   102    1
   100    15    14    1
   101   158   159    1
   102   158   155    1
   103   102    99    1
   104   159   160    1
   105   155   154    1
   106   115   114    1
   107   115   116    1
   108    14    11    1
   109    98    99    1
   110    99   100    1
   111   140   142    1
   112   140   139    1
   113   154   150   am
   114   127   121    1
   115   127   126    1
   116   151   150    2
   117   153   152    1
   118    11    12    1
   119    11    10    1
   120    13    12    2
   121   160   161   ar
   122   160   162   ar
   123   150   149    1
   124   116   121   am
   125   116   117    2
   126   139   136    1
   127   121   122    1
   128   126   125    1
   129   152   149    1
   130   124   123    2
   131   100   106   am
   132   100   101    2
   133     9     7   am
   134   106   107    1
   135   113   111   am
   136   149   148    1
   137     8     7    2
   138   112   111    2
   139   136   135    1
   140   136   137    1
   141     7     6    1
   142   122   123    1
   143   122   125    1
   144   111   110    1
   145   123   128   am
   146   135   130   am
   147   148   145   am
   148   107   110    1
   149   107   108    1
   150    25    24    1
   151   137   138    2
   152   137   143   am
   153   128   129    1
   154   130   129    1
   155   130   131    2
   156     6     5    1
   157   143   144    1
   158   145   146    2
   159   145   144    1
   160   129   132    1
   161   108   109    2
   162     4     3    2
   163     3     2    1
   164    24    26    1
   165    24    23    2
   166    22    23    1
   167    22    21    1
   168   144   147    1
   169     5     2    1
   170     2     1    1
   171    21    20    1
   172   132   133    1
   173   132   134    1
   174    20    17    1
   175    19    18    2
   176    17    18    1
   177    17    16    1
