@<TRIPOS>MOLECULE
tmp/1iigB00.pdb
 88 82 0 0 0
SMALL
GASTEIGER

@<TRIPOS>ATOM
      1  N         39.6860   15.5380   -9.8090 N.3    10  ASN10      -0.1240
      2  CA        40.1190   16.3420   -8.6910 C.3    10  ASN10       0.1653
      3  C         40.1700   17.8020   -9.1400 C.2    10  ASN10       0.2266
      4  O         41.2090   18.2420   -9.6220 O.2    10  ASN10      -0.2867
      5  CB        41.4940   15.8780   -8.1820 C.3    10  ASN10       0.1155
      6  CG        41.8990   16.6790   -6.9720 C.2    10  ASN10       0.2627
      7  OD1       41.0600   17.3890   -6.4390 O.2    10  ASN10      -0.2716
      8  ND2       43.1220   16.5220   -6.4710 N.am   10  ASN10      -0.0877
      9  N         40.1620   20.3090   -7.3370 N.3    12  LYS12      -0.1245
     10  CA        41.0580   21.0230   -6.4500 C.3    12  LYS12       0.1561
     11  C         40.3700   22.3260   -6.1510 C.2    12  LYS12       0.2260
     12  O         39.1660   22.3710   -6.3150 O.2    12  LYS12      -0.2867
     13  CB        42.4410   21.3230   -7.0650 C.3    12  LYS12       0.0271
     14  CG        43.1770   20.0710   -7.5030 C.3    12  LYS12       0.0035
     15  CD        44.6890   20.1350   -7.5730 C.3    12  LYS12       0.0206
     16  CE        45.2520   18.7740   -7.9800 C.3    12  LYS12       0.1093
     17  NZ        46.6780   18.7870   -8.2990 N.3    12  LYS12      -0.1314
     18  N         46.0820   13.8820    0.0290 N.3    94  HIS94      -0.1241
     19  CA        46.6710   14.4780   -1.1360 C.3    94  HIS94       0.1621
     20  C         48.0020   15.2010   -0.8910 C.2    94  HIS94       0.2264
     21  O         48.1800   15.9370    0.0840 O.2    94  HIS94      -0.2867
     22  CB        45.6710   15.3860   -1.8190 C.3    94  HIS94       0.0745
     23  CG        46.0850   15.7190   -3.2060 C.ar   94  HIS94       0.0817
     24  ND1       47.1070   16.5800   -3.4740 N.ar   94  HIS94      -0.2268
     25  CD2       45.6530   15.2080   -4.3730 C.ar   94  HIS94       0.1154
     26  CE1       47.2500   16.6610   -4.7790 C.ar   94  HIS94       0.1986
     27  NE2       46.4440   15.7860   -5.3440 N.ar   94  HIS94      -0.2212
     28  N         50.4900    8.8310   -7.0400 N.3   166  GLU166     -0.1245
     29  CA        50.7420   10.0600   -7.7170 C.3   166  GLU166      0.1567
     30  C         52.1330   10.5650   -7.3830 C.2   166  GLU166      0.2260
     31  O         52.2750   11.2030   -6.3430 O.2   166  GLU166     -0.2867
     32  CB        49.7560   11.1130   -7.1890 C.3   166  GLU166      0.0388
     33  CG        48.2770   10.7990   -7.3810 C.3   166  GLU166      0.1160
     34  CD        47.4920   12.0500   -7.1790 C.2   166  GLU166      0.3649
     35  OE1       47.5690   12.7020   -6.1380 O.co2 166  GLU166     -0.2457
     36  OE2       46.8930   12.4390   -8.2780 O.co2 166  GLU166     -0.2457
     37  N         52.9130   15.9070  -10.7570 N.3   171  ILE171     -0.1231
     38  CA        51.7250   16.7020  -10.4460 C.3   171  ILE171      0.1692
     39  C         51.7370   18.0950  -11.0990 C.2   171  ILE171      0.2592
     40  O         52.3620   19.0250  -10.5990 O.2   171  ILE171     -0.2718
     41  CB        51.3610   16.6920   -8.9410 C.3   171  ILE171      0.0266
     42  CG1       51.0120   15.2860   -8.4760 C.3   171  ILE171      0.0019
     43  CG2       50.1790   17.5900   -8.6030 C.3   171  ILE171      0.0020
     44  CD1       51.3320   15.0830   -7.0250 C.3   171  ILE171      0.0001
     45  N         51.0410   18.2010  -12.2320 N.am  172  GLY172     -0.1957
     46  CA        50.8330   19.4110  -12.9920 C.3   172  GLY172      0.1869
     47  C         52.1050   20.0590  -13.5070 C.2   172  GLY172      0.2309
     48  O         52.2360   21.2800  -13.5350 O.2   172  GLY172     -0.2863
     49  N         48.9890   12.3850  -12.1770 N.3   211  GLY211     -0.1210
     50  CA        50.0880   13.2480  -12.4520 C.3   211  GLY211      0.1956
     51  C         50.3140   13.3900  -13.9550 C.2   211  GLY211      0.2613
     52  O         51.0210   12.5910  -14.5750 O.2   211  GLY211     -0.2717
     53  N         49.7300   14.4440  -14.5140 N.am  212  SER212     -0.1938
     54  CA        49.9170   14.7930  -15.9090 C.3   212  SER212      0.2055
     55  C         49.2050   13.9100  -16.9300 C.2   212  SER212      0.2642
     56  O         49.6110   13.8310  -18.0870 O.2   212  SER212     -0.2714
     57  CB        51.3170   15.2680  -16.2250 C.3   212  SER212      0.2130
     58  OG        51.5500   16.3410  -15.3290 O.3   212  SER212     -0.2179
     59  N         48.1380   13.2300  -16.4610 N.am  213  VAL213     -0.1977
     60  CA        47.2500   12.4210  -17.2770 C.3   213  VAL213      0.1596
     61  C         46.4130   13.3430  -18.1690 C.2   213  VAL213      0.2287
     62  O         45.8410   14.3210  -17.6830 O.2   213  VAL213     -0.2864
     63  CB        46.3460   11.4260  -16.5100 C.3   213  VAL213      0.0276
     64  CG1       45.3870   10.6610  -17.4550 C.3   213  VAL213      0.0022
     65  CG2       47.1410   10.4460  -15.6620 C.3   213  VAL213      0.0022
     66  N         43.5670    9.5180  -11.5040 N.3   231  LEU231     -0.1231
     67  CA        43.1210   10.6530  -10.7290 C.3   231  LEU231      0.1693
     68  C         43.5360   11.8720  -11.5120 C.2   231  LEU231      0.2592
     69  O         44.7120   12.0500  -11.7650 O.2   231  LEU231     -0.2718
     70  CB        43.8040   10.6590   -9.3670 C.3   231  LEU231      0.0284
     71  CG        42.9550   11.2940   -8.2820 C.3   231  LEU231      0.0019
     72  CD1       43.9420   11.9410   -7.3550 C.3   231  LEU231      0.0001
     73  CD2       42.1570   12.4350   -8.8260 C.3   231  LEU231      0.0001
     74  N         42.5900   12.5970  -12.0800 N.am  232  VAL232     -0.1966
     75  CA        42.9920   13.6440  -12.9870 C.3   232  VAL232      0.1727
     76  C         42.8350   15.0730  -12.4660 C.2   232  VAL232      0.2617
     77  O         41.7360   15.5850  -12.3000 O.2   232  VAL232     -0.2715
     78  CB        42.3060   13.4760  -14.3160 C.3   232  VAL232      0.0290
     79  CG1       43.0730   14.2940  -15.3520 C.3   232  VAL232      0.0023
     80  CG2       42.2760   12.0180  -14.7080 C.3   232  VAL232      0.0023
     81  N         43.9250   15.8160  -12.3710 N.am  233  GLY233     -0.1940
     82  CA        43.8220   17.2020  -11.9890 C.3   233  GLY233      0.2014
     83  C         43.2210   18.1020  -13.0480 C.2   233  GLY233      0.2639
     84  O         42.0140   18.2890  -13.1530 O.2   233  GLY233     -0.2714
     85  N         44.1310   18.6550  -13.8500 N.am  234  GLY234     -0.1954
     86  CA        43.9150   19.6640  -14.9310 C.3   234  GLY234      0.1869
     87  C         42.8920   19.3450  -16.0390 C.2   234  GLY234      0.2309
     88  O         41.9540   20.1030  -16.3060 O.2   234  GLY234     -0.2863
@<TRIPOS>BOND
     1    61    62    2
     2    61    60    1
     3    56    55    2
     4    64    63    1
     5    60    63    1
     6    60    59    1
     7    55    59   am
     8    55    54    1
     9    63    65    1
    10    88    87    2
    11    57    54    1
    12    57    58    1
    13    87    86    1
    14    54    53    1
    15    79    78    1
    16    86    85    1
    17    80    78    1
    18    52    51    2
    19    53    51   am
    20    78    75    1
    21    51    50    1
    22    85    83   am
    23    48    47    2
    24    47    46    1
    25    84    83    2
    26    83    82    1
    27    46    45    1
    28    75    76    1
    29    75    74    1
    30    76    81   am
    31    76    77    2
    32    50    49    1
    33    81    82    1
    34    45    39   am
    35    74    68   am
    36    69    68    2
    37    68    67    1
    38    66    67    1
    39    39    40    2
    40    39    38    1
    41    37    38    1
    42    67    70    1
    43    38    41    1
    44     1     2    1
    45     4     3    2
    46    70    71    1
    47     3     2    1
    48    41    43    1
    49    41    42    1
    50    73    71    1
    51     2     5    1
    52    42    44    1
    53    17    16    1
    54    71    72    1
    55    36    34   ar
    56     5     6    1
    57    16    15    1
    58    29    30    1
    59    29    32    1
    60    29    28    1
    61    15    14    1
    62    14    13    1
    63    30    31    2
    64    33    32    1
    65    33    34    1
    66     9    10    1
    67    34    35   ar
    68    13    10    1
    69     6     8   am
    70     6     7    2
    71    10    11    1
    72    12    11    2
    73    27    26   ar
    74    27    25   ar
    75    26    24   ar
    76    25    23   ar
    77    24    23   ar
    78    23    22    1
    79    22    19    1
    80    19    20    1
    81    19    18    1
    82    20    21    2
