@<TRIPOS>MOLECULE
tmp/1iihB00.pdb
 97 91 0 0 0
SMALL
GASTEIGER

@<TRIPOS>ATOM
      1  N         40.1120   15.3830   -9.9260 N.3    10  ASN10      -0.1240
      2  CA        40.5120   16.2410   -8.7970 C.3    10  ASN10       0.1653
      3  C         40.5460   17.7180   -9.2400 C.2    10  ASN10       0.2266
      4  O         41.5100   18.2790   -9.8000 O.2    10  ASN10      -0.2867
      5  CB        41.8810   15.9120   -8.2320 C.3    10  ASN10       0.1155
      6  CG        42.1450   16.6770   -6.9540 C.2    10  ASN10       0.2627
      7  OD1       41.2270   17.3220   -6.4500 O.2    10  ASN10      -0.2716
      8  ND2       43.3590   16.5520   -6.4120 N.am   10  ASN10      -0.0877
      9  N         40.5570   20.2150   -7.4430 N.3    12  LYS12      -0.1245
     10  CA        41.4380   21.0260   -6.6200 C.3    12  LYS12       0.1561
     11  C         40.7340   22.3300   -6.2610 C.2    12  LYS12       0.2260
     12  O         39.5210   22.3500   -6.1470 O.2    12  LYS12      -0.2867
     13  CB        42.7580   21.2430   -7.3220 C.3    12  LYS12       0.0271
     14  CG        43.4880   19.8940   -7.4510 C.3    12  LYS12       0.0035
     15  CD        44.9720   19.9650   -7.8010 C.3    12  LYS12       0.0206
     16  CE        45.5520   18.6480   -8.3080 C.3    12  LYS12       0.1093
     17  NZ        47.0270   18.7060   -8.2410 N.3    12  LYS12      -0.1314
     18  N         46.5250   13.7460   -0.1520 N.3    94  HIS94      -0.1241
     19  CA        47.0330   14.4040   -1.3360 C.3    94  HIS94       0.1621
     20  C         48.2920   15.1600   -0.9390 C.2    94  HIS94       0.2264
     21  O         48.3560   15.7190    0.1690 O.2    94  HIS94      -0.2867
     22  CB        45.9940   15.3920   -1.8880 C.3    94  HIS94       0.0745
     23  CG        46.4360   15.8420   -3.2340 C.ar   94  HIS94       0.0817
     24  ND1       47.3410   16.8890   -3.3930 N.ar   94  HIS94      -0.2268
     25  CD2       46.1250   15.3280   -4.4590 C.ar   94  HIS94       0.1154
     26  CE1       47.4990   17.0290   -4.7130 C.ar   94  HIS94       0.1986
     27  NE2       46.8230   16.0820   -5.3760 N.ar   94  HIS94      -0.2212
     28  N         50.7950    9.0590   -6.7840 N.3   166  GLU166     -0.1245
     29  CA        50.9940   10.3120   -7.4520 C.3   166  GLU166      0.1567
     30  C         52.4260   10.8480   -7.1930 C.2   166  GLU166      0.2260
     31  O         52.6290   11.6970   -6.3260 O.2   166  GLU166     -0.2867
     32  CB        49.9210   11.2880   -6.9290 C.3   166  GLU166      0.0388
     33  CG        49.9390   11.2160   -5.4420 C.3   166  GLU166      0.1160
     34  CD        49.2770   12.4280   -4.8230 C.2   166  GLU166      0.3649
     35  OE1       49.9430   13.5440   -4.9640 O.co2 166  GLU166     -0.2457
     36  OE2       48.2120   12.3780   -4.3590 O.co2 166  GLU166     -0.2457
     37  N         53.4290   16.1280  -10.8280 N.3   171  ILE171     -0.1231
     38  CA        52.2510   16.8900  -10.5350 C.3   171  ILE171      0.1692
     39  C         52.2550   18.2530  -11.1290 C.2   171  ILE171      0.2592
     40  O         52.8750   19.1520  -10.5860 O.2   171  ILE171     -0.2718
     41  CB        51.8010   16.8250   -9.0750 C.3   171  ILE171      0.0266
     42  CG1       51.5110   15.3620   -8.7220 C.3   171  ILE171      0.0019
     43  CG2       50.4900   17.5930   -8.8410 C.3   171  ILE171      0.0020
     44  CD1       51.3830   15.1560   -7.2170 C.3   171  ILE171      0.0001
     45  N         51.5980   18.3380  -12.2840 N.am  172  GLY172     -0.1957
     46  CA        51.3380   19.5850  -12.9970 C.3   172  GLY172      0.1869
     47  C         52.5420   20.2400  -13.6250 C.2   172  GLY172      0.2309
     48  O         52.6190   21.4560  -13.7330 O.2   172  GLY172     -0.2863
     49  N         48.5910    9.0020  -11.0040 N.3   210  GLY210     -0.1210
     50  CA        48.3800   10.4460  -11.0860 C.3   210  GLY210      0.1956
     51  C         49.6530   11.2160  -11.2980 C.2   210  GLY210      0.2612
     52  O         50.6970   10.8960  -10.7170 O.2   210  GLY210     -0.2717
     53  N         49.5510   12.2250  -12.1540 N.am  211  GLY211     -0.1942
     54  CA        50.6830   13.0880  -12.4310 C.3   211  GLY211      0.2014
     55  C         50.8390   13.3590  -13.9100 C.2   211  GLY211      0.2640
     56  O         51.4060   12.5200  -14.5950 O.2   211  GLY211     -0.2714
     57  N         50.2670   14.4810  -14.3750 N.am  212  SER212     -0.1935
     58  CA        50.2790   14.8870  -15.7820 C.3   212  SER212      0.2055
     59  C         49.5810   13.9300  -16.7500 C.2   212  SER212      0.2642
     60  O         49.9780   13.7530  -17.8940 O.2   212  SER212     -0.2714
     61  CB        51.6660   15.2810  -16.2710 C.3   212  SER212      0.2130
     62  OG        52.1580   16.2370  -15.3550 O.3   212  SER212     -0.2179
     63  N         48.5050   13.3150  -16.3000 N.am  213  VAL213     -0.1977
     64  CA        47.7450   12.4450  -17.1630 C.3   213  VAL213      0.1596
     65  C         46.8120   13.3140  -18.0030 C.2   213  VAL213      0.2287
     66  O         46.0900   14.1850  -17.4730 O.2   213  VAL213     -0.2864
     67  CB        46.9490   11.4170  -16.3640 C.3   213  VAL213      0.0276
     68  CG1       45.9020   10.7730  -17.2520 C.3   213  VAL213      0.0022
     69  CG2       47.8890   10.3860  -15.7440 C.3   213  VAL213      0.0022
     70  N         43.8430    9.5600  -11.3840 N.3   231  LEU231     -0.1231
     71  CA        43.3990   10.5630  -10.5190 C.3   231  LEU231      0.1693
     72  C         43.8240   11.7600  -11.3110 C.2   231  LEU231      0.2592
     73  O         45.0320   11.8790  -11.4680 O.2   231  LEU231     -0.2718
     74  CB        44.1780   10.5160   -9.1870 C.3   231  LEU231      0.0284
     75  CG        43.9980   11.8650   -8.4840 C.3   231  LEU231      0.0019
     76  CD1       42.5200   12.1500   -8.2030 C.3   231  LEU231      0.0001
     77  CD2       44.8000   12.0460   -7.2210 C.3   231  LEU231      0.0001
     78  N         42.9350   12.6310  -11.8160 N.am  232  VAL232     -0.1966
     79  CA        43.3420   13.6860  -12.7410 C.3   232  VAL232      0.1727
     80  C         43.1220   15.1130  -12.2750 C.2   232  VAL232      0.2617
     81  O         41.9950   15.5250  -12.1040 O.2   232  VAL232     -0.2715
     82  CB        42.6090   13.5320  -14.0860 C.3   232  VAL232      0.0290
     83  CG1       43.2310   14.4910  -15.1000 C.3   232  VAL232      0.0023
     84  CG2       42.7100   12.1030  -14.5950 C.3   232  VAL232      0.0023
     85  N         44.1540   15.9360  -12.2140 N.am  233  GLY233     -0.1940
     86  CA        43.9110   17.3110  -11.8360 C.3   233  GLY233      0.2014
     87  C         43.5330   18.1420  -13.0410 C.2   233  GLY233      0.2639
     88  O         42.4690   18.0280  -13.6250 O.2   233  GLY233     -0.2714
     89  N         44.5130   18.8720  -13.5410 N.am  234  GLY234     -0.1939
     90  CA        44.3210   19.8510  -14.6160 C.3   234  GLY234      0.2014
     91  C         43.4380   19.4830  -15.8270 C.2   234  GLY234      0.2638
     92  O         42.7820   20.3500  -16.4130 O.2   234  GLY234     -0.2714
     93  N         43.5160   18.2340  -16.2840 N.am  235  ALA235     -0.1977
     94  CA        42.8180   17.8620  -17.4850 C.3   235  ALA235      0.1597
     95  C         41.3290   17.6420  -17.2240 C.2   235  ALA235      0.2287
     96  O         40.5010   17.5790  -18.1510 O.2   235  ALA235     -0.2864
     97  CB        43.4590   16.6030  -18.0260 C.3   235  ALA235      0.0319
@<TRIPOS>BOND
     1    96    95    2
     2    97    94    1
     3    65    66    2
     4    65    64    1
     5    60    59    2
     6    94    95    1
     7    94    93    1
     8    68    67    1
     9    64    67    1
    10    64    63    1
    11    59    63   am
    12    59    58    1
    13    92    91    2
    14    67    69    1
    15    93    91   am
    16    61    58    1
    17    61    62    1
    18    91    90    1
    19    58    57    1
    20    83    82    1
    21    90    89    1
    22    56    55    2
    23    84    82    1
    24    57    55   am
    25    82    79    1
    26    55    54    1
    27    48    47    2
    28    88    87    2
    29    47    46    1
    30    89    87   am
    31    87    86    1
    32    46    45    1
    33    79    80    1
    34    79    78    1
    35    54    53    1
    36    45    39   am
    37    80    85   am
    38    80    81    2
    39    85    86    1
    40    53    51   am
    41    78    72   am
    42    73    72    2
    43    70    71    1
    44    72    71    1
    45    51    50    1
    46    51    52    2
    47    39    40    2
    48    39    38    1
    49    50    49    1
    50    37    38    1
    51    38    41    1
    52    71    74    1
    53     1     2    1
    54     4     3    2
    55     3     2    1
    56    74    75    1
    57    41    43    1
    58    41    42    1
    59     2     5    1
    60    42    44    1
    61    75    76    1
    62    75    77    1
    63    16    17    1
    64    16    15    1
    65     5     6    1
    66    15    14    1
    67    29    30    1
    68    29    32    1
    69    29    28    1
    70    14    13    1
    71     9    10    1
    72    13    10    1
    73    30    31    2
    74     6     7    2
    75     6     8   am
    76    32    33    1
    77    10    11    1
    78    11    12    2
    79    33    34    1
    80    27    26   ar
    81    27    25   ar
    82    35    34   ar
    83    34    36   ar
    84    26    24   ar
    85    25    23   ar
    86    24    23   ar
    87    23    22    1
    88    22    19    1
    89    19    20    1
    90    19    18    1
    91    20    21    2
