@<TRIPOS>MOLECULE
tmp/1iitA00.pdb
 89 84 0 0 0
SMALL
GASTEIGER

@<TRIPOS>ATOM
      1  N         80.7570   -4.1270   -9.3700 N.3    12  GLY12      -0.1210
      2  CA        81.2090   -5.4680   -9.0500 C.3    12  GLY12       0.1956
      3  C         80.1170   -6.5090   -9.1920 C.2    12  GLY12       0.2611
      4  O         78.9740   -6.1890   -9.5160 O.2    12  GLY12      -0.2717
      5  N         80.4670   -7.7600   -8.9170 N.am   13  ASN13      -0.1974
      6  CA        79.5270   -8.8710   -9.0320 C.3    13  ASN13       0.1688
      7  C         79.5220   -9.7050   -7.7630 C.2    13  ASN13       0.2292
      8  O         80.3820   -9.5330   -6.8940 O.2    13  ASN13      -0.2864
      9  CB        79.9490   -9.7860  -10.1910 C.3    13  ASN13       0.1181
     10  CG        79.8470   -9.1090  -11.5380 C.2    13  ASN13       0.2629
     11  OD1       78.8540   -9.2680  -12.2480 O.2    13  ASN13      -0.2716
     12  ND2       80.8790   -8.3480  -11.9010 N.am   13  ASN13      -0.0877
     13  N         84.2800   -0.1360  -13.7490 N.3    49  ILE49      -0.1245
     14  CA        85.3360    0.2740  -12.8330 C.3    49  ILE49       0.1561
     15  C         86.0150    1.5630  -13.2900 C.2    49  ILE49       0.2260
     16  O         86.1920    2.4800  -12.4970 O.2    49  ILE49      -0.2867
     17  CB        86.3700   -0.8500  -12.6350 C.3    49  ILE49       0.0252
     18  CG1       85.7450   -1.9610  -11.7860 C.3    49  ILE49       0.0019
     19  CG2       87.6310   -0.3090  -11.9720 C.3    49  ILE49       0.0019
     20  CD1       86.5540   -3.2320  -11.7070 C.3    49  ILE49       0.0001
     21  N         84.8380   -5.2310   -5.6860 N.3    67  PRO67      -0.2116
     22  CA        85.9880   -6.1260   -5.8630 C.3    67  PRO67       0.1372
     23  C         86.8780   -5.5400   -6.9560 C.2    67  PRO67       0.2244
     24  O         86.9870   -6.0920   -8.0480 O.2    67  PRO67      -0.2868
     25  CB        85.3350   -7.4310   -6.3090 C.3    67  PRO67       0.0268
     26  CG        84.1510   -6.9620   -7.0900 C.3    67  PRO67       0.0207
     27  CD        83.6090   -5.8460   -6.2210 C.3    67  PRO67       0.0892
     28  N         90.3400   -4.7430   -8.4620 N.3    69  SER69      -0.1217
     29  CA        91.7290   -5.1800   -8.4570 C.3    69  SER69       0.1889
     30  C         92.6700   -3.9840   -8.4960 C.2    69  SER69       0.2288
     31  O         92.4540   -3.0390   -9.2610 O.2    69  SER69      -0.2866
     32  CB        92.0140   -6.0660   -9.6610 C.3    69  SER69       0.2089
     33  OG        91.1900   -7.2100   -9.6410 O.3    69  SER69      -0.2183
     34  N         95.7590    1.0950  -13.0960 N.3    74  ARG74      -0.1245
     35  CA        94.7560    1.8460  -12.3550 C.3    74  ARG74       0.1563
     36  C         95.3840    2.7700  -11.3270 C.2    74  ARG74       0.2260
     37  O         94.9090    3.8870  -11.1190 O.2    74  ARG74      -0.2867
     38  CB        93.7540    0.9090  -11.6850 C.3    74  ARG74       0.0307
     39  CG        92.8750    0.2040  -12.6920 C.3    74  ARG74       0.0489
     40  CD        91.8770   -0.7120  -12.0400 C.3    74  ARG74       0.2205
     41  NE        91.1180   -1.4540  -13.0410 N.pl3  74  ARG74      -0.0865
     42  CZ        90.5020   -2.6060  -12.7990 C.cat  74  ARG74       0.5346
     43  NH1       90.5570   -3.1400  -11.5860 N.pl3  74  ARG74       0.1354
     44  NH2       89.8420   -3.2300  -13.7710 N.pl3  74  ARG74       0.1354
     45  N         87.4240   -5.4290  -17.1920 N.3   120  THR120     -0.1203
     46  CA        87.8600   -6.1970  -16.0300 C.3   120  THR120      0.1994
     47  C         89.2930   -6.6010  -16.3390 C.2   120  THR120      0.2618
     48  O         89.6990   -6.5970  -17.5070 O.2   120  THR120     -0.2717
     49  CB        86.9930   -7.4620  -15.7880 C.3   120  THR120      0.1784
     50  OG1       87.1190   -8.3490  -16.9030 O.3   120  THR120     -0.2211
     51  CG2       85.5280   -7.0870  -15.5930 C.3   120  THR120      0.0376
     52  N         90.0530   -6.9720  -15.3110 N.am  121  THR121     -0.1952
     53  CA        91.4480   -7.3580  -15.5060 C.3   121  THR121      0.1897
     54  C         91.6000   -8.5980  -16.3920 C.2   121  THR121      0.2313
     55  O         92.6360   -8.7920  -17.0280 O.2   121  THR121     -0.2863
     56  CB        92.1690   -7.5850  -14.1570 C.3   121  THR121      0.1794
     57  OG1       91.4900   -8.6010  -13.4130 O.3   121  THR121     -0.2208
     58  CG2       92.2000   -6.2980  -13.3360 C.3   121  THR121      0.0378
     59  N         87.2940  -14.9070  -15.4310 N.3   156  PHE156     -0.1227
     60  CA        86.7540  -13.9140  -14.5070 C.3   156  PHE156      0.1736
     61  C         87.2510  -14.2420  -13.1070 C.2   156  PHE156      0.2595
     62  O         87.8460  -15.2970  -12.8870 O.2   156  PHE156     -0.2718
     63  CB        85.2230  -13.9710  -14.5500 C.3   156  PHE156      0.0547
     64  CG        84.5430  -12.7530  -13.9890 C.ar  156  PHE156     -0.0202
     65  CD1       84.3560  -11.6230  -14.7760 C.ar  156  PHE156     -0.0042
     66  CD2       84.0800  -12.7360  -12.6750 C.ar  156  PHE156     -0.0042
     67  CE1       83.7190  -10.4950  -14.2640 C.ar  156  PHE156     -0.0003
     68  CE2       83.4440  -11.6120  -12.1600 C.ar  156  PHE156     -0.0003
     69  CZ        83.2640  -10.4910  -12.9560 C.ar  156  PHE156     -0.0000
     70  N         87.0320  -13.3220  -12.1720 N.am  157  ASP157     -0.1974
     71  CA        87.4300  -13.5010  -10.7740 C.3   157  ASP157      0.1709
     72  C         86.8830  -14.8280  -10.2460 C.2   157  ASP157      0.2293
     73  O         85.6880  -15.0880  -10.3300 O.2   157  ASP157     -0.2864
     74  CB        86.8920  -12.3490   -9.9140 C.3   157  ASP157      0.1436
     75  CG        87.4300  -10.9940  -10.3430 C.2   157  ASP157      0.3671
     76  OD1       88.0360  -10.3030   -9.4990 O.co2 157  ASP157     -0.2456
     77  OD2       87.2470  -10.6160  -11.5230 O.co2 157  ASP157     -0.2456
     78  N         92.1640   -6.7670   -3.7940 N.3   185  TYR185     -0.1241
     79  CA        91.0140   -5.8820   -3.9980 C.3   185  TYR185      0.1605
     80  C         91.1550   -4.7030   -3.0410 C.2   185  TYR185      0.2264
     81  O         91.5190   -4.8890   -1.8900 O.2   185  TYR185     -0.2867
     82  CB        89.6880   -6.5640   -3.6370 C.3   185  TYR185      0.0534
     83  CG        89.1830   -7.6450   -4.5600 C.ar  185  TYR185     -0.0201
     84  CD1       88.1580   -8.4890   -4.1400 C.ar  185  TYR185     -0.0009
     85  CD2       89.6990   -7.8230   -5.8460 C.ar  185  TYR185     -0.0009
     86  CE1       87.6590   -9.4790   -4.9610 C.ar  185  TYR185      0.0417
     87  CE2       89.1990   -8.8240   -6.6870 C.ar  185  TYR185      0.0417
     88  CZ        88.1740   -9.6480   -6.2280 C.ar  185  TYR185      0.1957
     89  OH        87.6750  -10.6710   -7.0070 O.3   185  TYR185     -0.2866
@<TRIPOS>BOND
     1    48    47    2
     2    45    46    1
     3    55    54    2
     4    50    49    1
     5    54    53    1
     6    47    46    1
     7    47    52   am
     8    46    49    1
     9    49    51    1
    10    53    52    1
    11    53    56    1
    12    59    60    1
    13    65    67   ar
    14    65    64   ar
    15    63    60    1
    16    63    64    1
    17    60    61    1
    18    67    69   ar
    19    56    57    1
    20    56    58    1
    21    64    66   ar
    22    44    42    1
    23    13    14    1
    24    15    14    1
    25    15    16    2
    26    61    62    2
    27    61    70   am
    28    34    35    1
    29    41    42    2
    30    41    40    1
    31    69    68   ar
    32    14    17    1
    33    42    43    1
    34    39    40    1
    35    39    38    1
    36    66    68   ar
    37    17    19    1
    38    17    18    1
    39    35    38    1
    40    35    36    1
    41    11    10    2
    42    70    71    1
    43    12    10   am
    44    18    20    1
    45    10     9    1
    46    77    75   ar
    47    36    37    2
    48    71    72    1
    49    71    74    1
    50    75    74    1
    51    75    76   ar
    52    73    72    2
    53     9     6    1
    54    32    33    1
    55    32    29    1
    56     4     3    2
    57     1     2    1
    58    31    30    2
    59     3     2    1
    60     3     5   am
    61     6     5    1
    62     6     7    1
    63    30    29    1
    64    28    29    1
    65    24    23    2
    66     7     8    2
    67    26    25    1
    68    26    27    1
    69    89    88    1
    70    23    22    1
    71    87    88   ar
    72    87    85   ar
    73    25    22    1
    74    88    86   ar
    75    27    21    1
    76    22    21    1
    77    85    83   ar
    78    86    84   ar
    79    83    84   ar
    80    83    82    1
    81    79    78    1
    82    79    82    1
    83    79    80    1
    84    80    81    2
