@<TRIPOS>MOLECULE
tmp/1iiyA01.pdb
 100 97 0 0 0
SMALL
GASTEIGER

@<TRIPOS>ATOM
      1  N        -21.0890    4.3660  236.3180 N.3     2  GLY2       -0.1210
      2  CA       -21.5450    4.6170  237.7160 C.3     2  GLY2        0.1956
      3  C        -23.0680    4.7240  237.7670 C.2     2  GLY2        0.2612
      4  O        -23.7530    4.0040  237.0740 O.2     2  GLY2       -0.2717
      5  N        -23.5960    5.6160  238.5990 N.am    3  LYS3       -0.1965
      6  CA       -25.0780    5.8220  238.7550 C.3     3  LYS3        0.1728
      7  C        -25.6740    4.7260  239.6390 C.2     3  LYS3        0.2616
      8  O        -26.8680    4.4960  239.6470 O.2     3  LYS3       -0.2715
      9  CB       -25.7440    5.8370  237.3780 C.3     3  LYS3        0.0311
     10  CG       -27.1080    6.5150  237.4750 C.3     3  LYS3        0.0038
     11  CD       -27.7030    6.6600  236.0720 C.3     3  LYS3        0.0206
     12  CE       -27.8010    5.2830  235.4100 C.3     3  LYS3        0.1093
     13  NZ       -28.9220    5.2830  234.4280 N.3     3  LYS3       -0.1314
     14  N        -24.8500    4.0590  240.3960 N.am    4  PHE4       -0.1974
     15  CA       -25.3510    2.9870  241.3010 C.3     4  PHE4        0.1639
     16  C        -26.5770    3.4810  242.0800 C.2     4  PHE4        0.2290
     17  O        -27.3390    2.6910  242.5990 O.2     4  PHE4       -0.2864
     18  CB       -24.2390    2.6040  242.2900 C.3     4  PHE4        0.0560
     19  CG       -24.1190    3.6600  243.3750 C.ar    4  PHE4       -0.0200
     20  CD1      -23.3780    4.8370  243.1490 C.ar    4  PHE4       -0.0042
     21  CD2      -24.7650    3.4620  244.6120 C.ar    4  PHE4       -0.0042
     22  CE1      -23.2800    5.8110  244.1620 C.ar    4  PHE4       -0.0003
     23  CE2      -24.6670    4.4380  245.6210 C.ar    4  PHE4       -0.0003
     24  CZ       -23.9250    5.6110  245.3970 C.ar    4  PHE4       -0.0000
     25  N        -29.2070    4.6130  240.9980 N.3     6  GLN6       -0.1231
     26  CA       -30.4750    4.3100  240.2710 C.3     6  GLN6        0.1698
     27  C        -31.0660    2.9920  240.7660 C.2     6  GLN6        0.2592
     28  O        -32.2630    2.7900  240.7010 O.2     6  GLN6       -0.2718
     29  CB       -30.2170    4.2080  238.7670 C.3     6  GLN6        0.0381
     30  CG       -31.5330    3.8890  238.0510 C.3     6  GLN6        0.0905
     31  CD       -31.3080    3.8750  236.5380 C.2     6  GLN6        0.2608
     32  OE1      -30.2470    4.2300  236.0680 O.2     6  GLN6       -0.2717
     33  NE2      -32.2700    3.4780  235.7510 N.am    6  GLN6       -0.0878
     34  N        -30.2460    2.0860  241.2480 N.am    7  THR7       -0.1953
     35  CA       -30.7800    0.7680  241.7320 C.3     7  THR7        0.1897
     36  C        -30.3140    0.4850  243.1600 C.2     7  THR7        0.2313
     37  O        -30.3570   -0.6460  243.6040 O.2     7  THR7       -0.2863
     38  CB       -30.2980   -0.3400  240.7970 C.3     7  THR7        0.1794
     39  OG1      -28.9620   -0.6920  241.1300 O.3     7  THR7       -0.2208
     40  CG2      -30.3490    0.1550  239.3510 C.3     7  THR7        0.0378
     41  N        -29.8010   -3.7460  244.3870 N.3    23  GLU23      -0.1231
     42  CA       -30.6200   -4.8630  243.8520 C.3    23  GLU23       0.1699
     43  C        -29.7830   -5.7500  242.9330 C.2    23  GLU23       0.2592
     44  O        -28.9670   -5.2930  242.1570 O.2    23  GLU23      -0.2718
     45  CB       -31.8230   -4.3040  243.0790 C.3    23  GLU23       0.0402
     46  CG       -31.4030   -3.8870  241.6660 C.3    23  GLU23       0.1161
     47  CD       -32.5550   -3.1360  240.9950 C.2    23  GLU23       0.3649
     48  OE1      -33.6050   -3.0340  241.6060 O.co2  23  GLU23      -0.2457
     49  OE2      -32.3670   -2.6780  239.8800 O.co2  23  GLU23      -0.2457
     50  N        -30.0180   -7.0240  243.0220 N.am   24  ARG24      -0.1966
     51  CA       -29.3040   -8.0180  242.1780 C.3    24  ARG24       0.1729
     52  C        -29.9410   -8.0900  240.8000 C.2    24  ARG24       0.2616
     53  O        -31.1080   -7.8020  240.6170 O.2    24  ARG24      -0.2715
     54  CB       -29.4440   -9.3960  242.8140 C.3    24  ARG24       0.0348
     55  CG       -28.6250   -9.4680  244.1040 C.3    24  ARG24       0.0492
     56  CD       -28.7550  -10.8730  244.7130 C.3    24  ARG24       0.2205
     57  NE       -27.5160  -11.1780  245.4740 N.pl3  24  ARG24      -0.0865
     58  CZ       -27.4530  -12.2450  246.2170 C.cat  24  ARG24       0.5346
     59  NH1      -28.4800  -13.0470  246.2910 N.pl3  24  ARG24       0.1354
     60  NH2      -26.3620  -12.5170  246.8750 N.pl3  24  ARG24       0.1354
     61  N        -29.1750   -8.4950  239.8280 N.am   25  THR25      -0.1951
     62  CA       -29.7140   -8.6180  238.4560 C.3    25  THR25       0.1897
     63  C        -30.8620   -9.6220  238.4840 C.2    25  THR25       0.2313
     64  O        -31.8510   -9.4700  237.7950 O.2    25  THR25      -0.2863
     65  CB       -28.6170   -9.1270  237.5170 C.3    25  THR25       0.1794
     66  OG1      -27.4770   -8.2880  237.6240 O.3    25  THR25      -0.2208
     67  CG2      -29.1300   -9.1150  236.0760 C.3    25  THR25       0.0378
     68  N        -20.3570    2.1010  240.2950 N.3    92  ALA92      -0.1231
     69  CA       -21.5540    1.4500  239.6570 C.3    92  ALA92       0.1694
     70  C        -21.9950    0.2200  240.4570 C.2    92  ALA92       0.2592
     71  O        -21.2950   -0.2690  241.3200 O.2    92  ALA92      -0.2718
     72  CB       -21.2340    0.9930  238.2190 C.3    92  ALA92       0.0304
     73  N        -23.1570   -0.2910  240.1340 N.am   93  ASN93      -0.1960
     74  CA       -23.6900   -1.5120  240.8110 C.3    93  ASN93       0.1819
     75  C        -23.6900   -2.6470  239.7870 C.2    93  ASN93       0.2621
     76  O        -24.4640   -2.6340  238.8510 O.2    93  ASN93      -0.2715
     77  CB       -25.1220   -1.2540  241.2770 C.3    93  ASN93       0.1195
     78  CG       -25.5950   -2.4340  242.1250 C.2    93  ASN93       0.2630
     79  OD1      -25.0150   -2.7300  243.1510 O.2    93  ASN93      -0.2716
     80  ND2      -26.6320   -3.1260  241.7390 N.am   93  ASN93      -0.0877
     81  N        -22.8440   -3.6350  239.9600 N.am   94  ILE94      -0.1963
     82  CA       -22.8090   -4.7870  238.9970 C.3    94  ILE94       0.1727
     83  C        -23.2790   -6.0270  239.7580 C.2    94  ILE94       0.2616
     84  O        -22.5790   -6.5850  240.5780 O.2    94  ILE94      -0.2715
     85  CB       -21.3770   -5.0010  238.4970 C.3    94  ILE94       0.0290
     86  CG1      -20.8270   -3.6870  237.9330 C.3    94  ILE94       0.0022
     87  CG2      -21.3740   -6.0640  237.3980 C.3    94  ILE94       0.0023
     88  CD1      -21.8290   -3.0900  236.9430 C.3    94  ILE94       0.0001
     89  N        -24.4700   -6.4550  239.4560 N.am   95  ASP95      -0.1957
     90  CA       -25.0450   -7.6700  240.0970 C.3    95  ASP95       0.1840
     91  C        -25.2820   -7.4770  241.6010 C.2    95  ASP95       0.2622
     92  O        -25.1780   -8.4150  242.3670 O.2    95  ASP95      -0.2715
     93  CB       -24.0970   -8.8560  239.8720 C.3    95  ASP95       0.1450
     94  CG       -24.8640  -10.1690  240.0640 C.2    95  ASP95       0.3671
     95  OD1      -25.9680  -10.1170  240.5830 O.co2  95  ASP95      -0.2456
     96  OD2      -24.3340  -11.2010  239.6850 O.co2  95  ASP95      -0.2456
     97  N        -25.6200   -6.2920  242.0440 N.am   96  GLY96      -0.1954
     98  CA       -25.8800   -6.0920  243.5060 C.3    96  GLY96       0.1869
     99  C        -24.5710   -5.8330  244.2600 C.2    96  GLY96       0.2309
    100  O        -24.5700   -5.6560  245.4620 O.2    96  GLY96      -0.2863
@<TRIPOS>BOND
     1    13    12    1
     2    12    11    1
     3    33    31   am
     4    32    31    2
     5    11    10    1
     6    67    65    1
     7     1     2    1
     8    31    30    1
     9    88    86    1
    10     4     3    2
    11     9    10    1
    12     9     6    1
    13    87    85    1
    14    65    66    1
    15    65    62    1
    16     2     3    1
    17     3     5   am
    18    64    63    2
    19    86    85    1
    20    30    29    1
    21    72    69    1
    22    62    63    1
    23    62    61    1
    24    85    82    1
    25     5     6    1
    26     6     7    1
    27    29    26    1
    28    76    75    2
    29    82    83    1
    30    82    81    1
    31    40    38    1
    32    89    83   am
    33    89    90    1
    34     7     8    2
    35     7    14   am
    36    69    68    1
    37    69    70    1
    38    96    94   ar
    39    83    84    2
    40    75    81   am
    41    75    74    1
    42    61    52   am
    43    93    94    1
    44    93    90    1
    45    49    47   ar
    46    94    95   ar
    47    90    91    1
    48    73    70   am
    49    73    74    1
    50    26    27    1
    51    26    25    1
    52    14    15    1
    53    70    71    2
    54    53    52    2
    55    28    27    2
    56    27    34   am
    57    38    39    1
    58    38    35    1
    59    52    51    1
    60    74    77    1
    61    47    48   ar
    62    47    46    1
    63    34    35    1
    64    77    78    1
    65    15    16    1
    66    15    18    1
    67    91    97   am
    68    91    92    2
    69    46    45    1
    70    35    36    1
    71    80    78   am
    72    97    98    1
    73    16    17    2
    74    78    79    2
    75    44    43    2
    76    51    54    1
    77    51    50    1
    78    18    19    1
    79    54    55    1
    80    43    50   am
    81    43    42    1
    82    45    42    1
    83    20    19   ar
    84    20    22   ar
    85    36    37    2
    86    19    21   ar
    87    98    99    1
    88    42    41    1
    89    55    56    1
    90    22    24   ar
    91    99   100    2
    92    21    23   ar
    93    56    57    1
    94    24    23   ar
    95    57    58    2
    96    58    59    1
    97    58    60    1
