@<TRIPOS>MOLECULE
tmp/1ij8B01.pdb
 143 135 0 0 0
SMALL
GASTEIGER

@<TRIPOS>ATOM
      1  N        -19.3830   46.2860   10.0060 N.3    11  ASN11      -0.1240
      2  CA       -18.1060   46.8110   10.4800 C.3    11  ASN11       0.1653
      3  C        -17.6740   48.1080    9.8190 C.2    11  ASN11       0.2266
      4  O        -18.3830   48.6570    8.9750 O.2    11  ASN11      -0.2867
      5  CB       -16.9830   45.7660   10.3570 C.3    11  ASN11       0.1155
      6  CG       -16.6660   45.3870    8.9210 C.2    11  ASN11       0.2627
      7  OD1      -16.6740   46.2240    8.0170 O.2    11  ASN11      -0.2716
      8  ND2      -16.3510   44.1110    8.7130 N.am   11  ASN11      -0.0877
      9  N        -15.4720   48.5880    7.6770 N.3    13  LEU13      -0.1245
     10  CA       -15.1360   48.4350    6.2620 C.3    13  LEU13       0.1561
     11  C        -16.4030   48.3320    5.4110 C.2    13  LEU13       0.2260
     12  O        -16.3410   48.4030    4.1850 O.2    13  LEU13      -0.2867
     13  CB       -14.2680   47.1870    6.0340 C.3    13  LEU13       0.0270
     14  CG       -12.7810   47.2300    6.4150 C.3    13  LEU13       0.0019
     15  CD1      -12.6320   47.5370    7.8860 C.3    13  LEU13       0.0001
     16  CD2      -12.1270   45.8930    6.0860 C.3    13  LEU13       0.0001
     17  N        -18.5820   45.6500    5.6450 N.3    15  SER15      -0.1217
     18  CA       -19.0120   44.2570    5.5440 C.3    15  SER15       0.1889
     19  C        -20.0910   43.9830    6.5830 C.2    15  SER15       0.2288
     20  O        -20.1070   44.6060    7.6430 O.2    15  SER15      -0.2866
     21  CB       -17.8320   43.3140    5.7810 C.3    15  SER15       0.2089
     22  OG       -16.8480   43.4780    4.7810 O.3    15  SER15      -0.2183
     23  N        -21.1700   35.7470    6.6090 N.3    32  TYR32      -0.1241
     24  CA       -20.3490   36.9410    6.4780 C.3    32  TYR32       0.1605
     25  C        -20.5070   37.4710    5.0600 C.2    32  TYR32       0.2264
     26  O        -20.2770   36.7500    4.0900 O.2    32  TYR32      -0.2867
     27  CB       -18.8840   36.5960    6.7640 C.3    32  TYR32       0.0534
     28  CG       -18.0450   37.7820    7.1810 C.ar   32  TYR32      -0.0201
     29  CD1      -17.5460   38.6810    6.2410 C.ar   32  TYR32      -0.0009
     30  CD2      -17.7560   38.0070    8.5270 C.ar   32  TYR32      -0.0009
     31  CE1      -16.7730   39.7770    6.6320 C.ar   32  TYR32       0.0417
     32  CE2      -16.9930   39.0950    8.9270 C.ar   32  TYR32       0.0417
     33  CZ       -16.5020   39.9750    7.9780 C.ar   32  TYR32       0.1957
     34  OH       -15.7290   41.0390    8.3860 O.3    32  TYR32      -0.2866
     35  N        -19.4580   40.4230    2.2750 N.3    34  THR34      -0.1218
     36  CA       -18.5120   41.4610    1.9080 C.3    34  THR34       0.1862
     37  C        -18.7740   41.8870    0.4660 C.2    34  THR34       0.2287
     38  O        -19.4050   41.1590   -0.3040 O.2    34  THR34      -0.2866
     39  CB       -17.0650   40.9550    2.0480 C.3    34  THR34       0.1770
     40  OG1      -16.1570   42.0000    1.6780 O.3    34  THR34      -0.2211
     41  CG2      -16.8350   39.7420    1.1560 C.3    34  THR34       0.0375
     42  N        -14.0380   31.4060    3.3560 N.3    66  TRP66      -0.1241
     43  CA       -14.3200   32.1340    2.1230 C.3    66  TRP66       0.1605
     44  C        -14.7270   31.2130    0.9780 C.2    66  TRP66       0.2264
     45  O        -14.0620   30.2180    0.6910 O.2    66  TRP66      -0.2867
     46  CB       -13.1090   32.9850    1.7170 C.3    66  TRP66       0.0550
     47  CG       -12.7200   33.9920    2.7640 C.ar   66  TRP66       0.0003
     48  CD1      -11.5550   34.0220    3.4820 C.ar   66  TRP66       0.0946
     49  CD2      -13.5150   35.0860    3.2450 C.ar   66  TRP66       0.0152
     50  NE1      -11.5790   35.0620    4.3800 N.ar   66  TRP66      -0.2442
     51  CE2      -12.7690   35.7310    4.2570 C.ar   66  TRP66       0.0810
     52  CE3      -14.7870   35.5820    2.9200 C.ar   66  TRP66       0.0012
     53  CZ2      -13.2530   36.8500    4.9490 C.ar   66  TRP66       0.0191
     54  CZ3      -15.2690   36.6940    3.6050 C.ar   66  TRP66       0.0001
     55  CH2      -14.5020   37.3160    4.6090 C.ar   66  TRP66       0.0015
     56  N        -15.1410   32.3620   -2.1710 N.3    68  PHE68      -0.1227
     57  CA       -14.6500   32.8900   -3.4400 C.3    68  PHE68       0.1736
     58  C        -13.1280   32.8260   -3.6140 C.2    68  PHE68       0.2596
     59  O        -12.6020   33.2450   -4.6440 O.2    68  PHE68      -0.2718
     60  CB       -15.1650   34.3210   -3.6590 C.3    68  PHE68       0.0547
     61  CG       -14.9010   35.2520   -2.5120 C.ar   68  PHE68      -0.0202
     62  CD1      -13.6600   35.8630   -2.3640 C.ar   68  PHE68      -0.0042
     63  CD2      -15.8970   35.5210   -1.5760 C.ar   68  PHE68      -0.0042
     64  CE1      -13.4170   36.7290   -1.2990 C.ar   68  PHE68      -0.0003
     65  CE2      -15.6630   36.3850   -0.5070 C.ar   68  PHE68      -0.0003
     66  CZ       -14.4210   36.9900   -0.3690 C.ar   68  PHE68      -0.0000
     67  N        -12.4240   32.2960   -2.6160 N.am   69  SER69      -0.1952
     68  CA       -10.9700   32.1510   -2.7010 C.3    69  SER69       0.1924
     69  C        -10.5200   30.9520   -1.8700 C.2    69  SER69       0.2314
     70  O        -11.3390   30.2960   -1.2270 O.2    69  SER69      -0.2863
     71  CB       -10.2600   33.4250   -2.2190 C.3    69  SER69       0.2116
     72  OG       -10.3640   33.5800   -0.8190 O.3    69  SER69      -0.2180
     73  N         -8.4170   31.2640    0.5280 N.3    71  SER71      -0.1217
     74  CA        -8.0060   31.8700    1.7890 C.3    71  SER71       0.1889
     75  C         -8.9280   31.5610    2.9600 C.2    71  SER71       0.2288
     76  O        -10.0540   31.1170    2.7770 O.2    71  SER71      -0.2866
     77  CB        -7.9310   33.3880    1.6270 C.3    71  SER71       0.2089
     78  OG        -6.9070   33.7410    0.7300 O.3    71  SER71      -0.2183
     79  N         -9.8770   33.2620    7.0520 N.3    73  THR73      -0.1218
     80  CA        -9.6560   34.3350    8.0140 C.3    73  THR73       0.1862
     81  C        -10.2460   33.9300    9.3570 C.2    73  THR73       0.2287
     82  O        -11.3310   33.3400    9.4250 O.2    73  THR73      -0.2866
     83  CB       -10.3380   35.6640    7.5940 C.3    73  THR73       0.1770
     84  OG1       -9.8400   36.0850    6.3200 O.3    73  THR73      -0.2211
     85  CG2      -10.0450   36.7590    8.6260 C.3    73  THR73       0.0375
     86  N        -11.1120   35.4200   13.3150 N.3    75  PHE75      -0.1241
     87  CA       -11.3230   36.6250   14.1150 C.3    75  PHE75       0.1605
     88  C        -11.4570   36.2420   15.5730 C.2    75  PHE75       0.2264
     89  O        -11.9850   35.1760   15.9050 O.2    75  PHE75      -0.2867
     90  CB       -12.6440   37.3230   13.7790 C.3    75  PHE75       0.0534
     91  CG       -12.7260   37.9050   12.4030 C.ar   75  PHE75      -0.0203
     92  CD1      -12.7930   37.0850   11.2840 C.ar   75  PHE75      -0.0042
     93  CD2      -12.8440   39.2840   12.2370 C.ar   75  PHE75      -0.0042
     94  CE1      -12.9860   37.6250   10.0190 C.ar   75  PHE75      -0.0003
     95  CE2      -13.0380   39.8370   10.9740 C.ar   75  PHE75      -0.0003
     96  CZ       -13.1120   39.0060    9.8640 C.ar   75  PHE75      -0.0000
     97  N         -7.9780   40.1430   13.4030 N.3    93  TRP93      -0.1241
     98  CA        -8.0250   38.9770   12.5370 C.3    93  TRP93       0.1605
     99  C         -6.7080   38.6480   11.8680 C.2    93  TRP93       0.2264
    100  O         -5.7930   39.4720   11.8140 O.2    93  TRP93      -0.2867
    101  CB        -9.0880   39.1740   11.4470 C.3    93  TRP93       0.0550
    102  CG        -8.9880   40.5060   10.7040 C.ar   93  TRP93       0.0003
    103  CD1       -9.7480   41.6270   10.9180 C.ar   93  TRP93       0.0946
    104  CD2       -8.0890   40.8350    9.6330 C.ar   93  TRP93       0.0152
    105  NE1       -9.3810   42.6280   10.0440 N.ar   93  TRP93      -0.2442
    106  CE2       -8.3650   42.1690    9.2460 C.ar   93  TRP93       0.0810
    107  CE3       -7.0780   40.1310    8.9620 C.ar   93  TRP93       0.0012
    108  CZ2       -7.6670   42.8120    8.2180 C.ar   93  TRP93       0.0191
    109  CZ3       -6.3820   40.7730    7.9370 C.ar   93  TRP93       0.0001
    110  CH2       -6.6820   42.1020    7.5760 C.ar   93  TRP93       0.0015
    111  N         -5.5200   36.8330    8.2000 N.3    95  LEU95      -0.1245
    112  CA        -5.9750   36.3950    6.8830 C.3    95  LEU95       0.1561
    113  C         -4.8880   35.5070    6.2740 C.2    95  LEU95       0.2260
    114  O         -3.8120   35.9760    5.9160 O.2    95  LEU95      -0.2867
    115  CB        -6.2390   37.6150    5.9960 C.3    95  LEU95       0.0270
    116  CG        -6.5140   37.4280    4.5040 C.3    95  LEU95       0.0019
    117  CD1       -7.7040   36.5000    4.2720 C.3    95  LEU95       0.0001
    118  CD2       -6.7820   38.7950    3.9070 C.3    95  LEU95       0.0001
    119  N         -3.4230   33.3620    3.3430 N.3    97  SER97      -0.1217
    120  CA        -3.4890   33.1500    1.9070 C.3    97  SER97       0.1889
    121  C         -2.8940   31.7780    1.6300 C.2    97  SER97       0.2288
    122  O         -2.1090   31.2590    2.4230 O.2    97  SER97      -0.2866
    123  CB        -2.6780   34.2130    1.1570 C.3    97  SER97       0.2089
    124  OG        -3.2270   35.5060    1.3410 O.3    97  SER97      -0.2183
    125  N         -1.6710   37.9400    6.7950 N.3   110  ARG110     -0.1245
    126  CA        -1.9180   39.3630    7.0100 C.3   110  ARG110      0.1563
    127  C         -2.6730   39.4970    8.3350 C.2   110  ARG110      0.2260
    128  O         -3.3530   38.5620    8.7690 O.2   110  ARG110     -0.2867
    129  CB        -2.7830   39.9480    5.8970 C.3   110  ARG110      0.0307
    130  CG        -2.1160   40.0920    4.5270 C.3   110  ARG110      0.0489
    131  CD        -3.1420   40.6750    3.5620 C.3   110  ARG110      0.2205
    132  NE        -2.5920   41.0560    2.2660 N.pl3 110  ARG110     -0.0865
    133  CZ        -2.1190   40.1990    1.3660 C.cat 110  ARG110      0.5346
    134  NH1       -2.1240   38.8980    1.6190 N.pl3 110  ARG110      0.1354
    135  NH2       -1.6530   40.6450    0.2070 N.pl3 110  ARG110      0.1354
    136  N        -11.0530   44.9260   13.0840 N.3   114  ASN114     -0.1240
    137  CA       -12.3950   45.2490   12.6300 C.3   114  ASN114      0.1653
    138  C        -13.2420   45.5680   13.8480 C.2   114  ASN114      0.2266
    139  O        -13.1470   44.9020   14.8850 O.2   114  ASN114     -0.2867
    140  CB       -13.0150   44.0800   11.8680 C.3   114  ASN114      0.1155
    141  CG       -12.8310   44.1910   10.3700 C.2   114  ASN114      0.2627
    142  OD1      -12.6370   43.1840    9.6880 O.2   114  ASN114     -0.2716
    143  ND2      -12.9100   45.4090    9.8430 N.am  114  ASN114     -0.0877
@<TRIPOS>BOND
     1    59    58    2
     2    60    57    1
     3    60    61    1
     4    58    57    1
     5    58    67   am
     6    57    56    1
     7    68    67    1
     8    68    71    1
     9    68    69    1
    10    61    62   ar
    11    61    63   ar
    12    62    64   ar
    13    71    72    1
    14    69    70    2
    15    63    65   ar
    16    64    66   ar
    17    65    66   ar
    18    38    37    2
    19   135   133    1
    20    37    36    1
    21    73    74    1
    22    45    44    2
    23    78    77    1
    24    44    43    1
    25    41    39    1
    26   123   124    1
    27   123   120    1
    28   133   134    1
    29   133   132    2
    30    77    74    1
    31   121   120    1
    32   121   122    2
    33    40    39    1
    34    46    43    1
    35    46    47    1
    36    74    75    1
    37   120   119    1
    38    36    39    1
    39    36    35    1
    40    43    42    1
    41   132   131    1
    42    47    49   ar
    43    47    48   ar
    44    76    75    2
    45    52    49   ar
    46    52    54   ar
    47    49    51   ar
    48    48    50   ar
    49   131   130    1
    50    54    55   ar
    51   118   116    1
    52    26    25    2
    53    12    11    2
    54    51    50   ar
    55    51    53   ar
    56   117   116    1
    57   116   115    1
    58   130   129    1
    59    55    53   ar
    60    22    21    1
    61    25    24    1
    62    11    10    1
    63    18    17    1
    64    18    21    1
    65    18    19    1
    66   129   126    1
    67   114   113    2
    68   115   112    1
    69    13    10    1
    70    13    14    1
    71    16    14    1
    72    29    31   ar
    73    29    28   ar
    74    10     9    1
    75   113   112    1
    76    84    83    1
    77    14    15    1
    78    24    23    1
    79    24    27    1
    80    19    20    2
    81    31    33   ar
    82    27    28    1
    83   125   126    1
    84   112   111    1
    85   126   127    1
    86    79    80    1
    87    28    30   ar
    88   110   109   ar
    89   110   108   ar
    90    83    80    1
    91    83    85    1
    92   109   107   ar
    93    33    34    1
    94    33    32   ar
    95    80    81    1
    96     7     6    2
    97   108   106   ar
    98   127   128    2
    99    30    32   ar
   100     8     6   am
   101     6     5    1
   102   107   104   ar
   103     4     3    2
   104   106   104   ar
   105   106   105   ar
   106    81    82    2
   107   104   102   ar
   108   142   141    2
   109     3     2    1
   110   143   141   am
   111    96    94   ar
   112    96    95   ar
   113     1     2    1
   114    94    92   ar
   115   105   103   ar
   116     5     2    1
   117   141   140    1
   118   102   103   ar
   119   102   101    1
   120    95    93   ar
   121    92    91   ar
   122   101    98    1
   123   100    99    2
   124    99    98    1
   125   140   137    1
   126    93    91   ar
   127    91    90    1
   128    98    97    1
   129   137   136    1
   130   137   138    1
   131    86    87    1
   132    90    87    1
   133   138   139    2
   134    87    88    1
   135    88    89    2
