@<TRIPOS>MOLECULE
tmp/1ijeA00.pdb
 105 101 0 0 0
SMALL
GASTEIGER

@<TRIPOS>ATOM
      1  N         29.5220   44.9480   37.9320 N.3    13  VAL13      -0.1231
      2  CA        30.8000   44.9990   37.2370 C.3    13  VAL13       0.1692
      3  C         32.0250   44.7660   38.1170 C.2    13  VAL13       0.2592
      4  O         33.0310   44.2760   37.6210 O.2    13  VAL13      -0.2718
      5  CB        30.9950   46.3400   36.5010 C.3    13  VAL13       0.0266
      6  CG1       29.9390   46.4930   35.4250 C.3    13  VAL13       0.0020
      7  CG2       30.9260   47.4970   37.4890 C.3    13  VAL13       0.0020
      8  N         31.9630   45.1130   39.4030 N.am   14  ASP14      -0.1974
      9  CA        33.1210   44.9090   40.2910 C.3    14  ASP14       0.1709
     10  C         33.0320   43.6320   41.1260 C.2    14  ASP14       0.2293
     11  O         33.8960   43.3810   41.9790 O.2    14  ASP14      -0.2864
     12  CB        33.2950   46.0780   41.2680 C.3    14  ASP14       0.1436
     13  CG        33.4760   47.4050   40.5720 C.2    14  ASP14       0.3671
     14  OD1       34.1860   47.4510   39.5450 O.co2  14  ASP14      -0.2456
     15  OD2       32.9150   48.4070   41.0700 O.co2  14  ASP14      -0.2456
     16  N         33.5000   40.6140   40.2140 N.3    16  GLY16      -0.1210
     17  CA        34.5560   39.6700   39.8860 C.3    16  GLY16       0.1956
     18  C         33.9620   38.3860   39.3260 C.2    16  GLY16       0.2612
     19  O         34.5780   37.3140   39.4040 O.2    16  GLY16      -0.2717
     20  N         32.7650   38.4950   38.7510 N.am   17  LYS17      -0.1965
     21  CA        32.0750   37.3340   38.2010 C.3    17  LYS17       0.1728
     22  C         32.6720   36.7640   36.9230 C.2    17  LYS17       0.2617
     23  O         32.3820   35.6190   36.5820 O.2    17  LYS17      -0.2715
     24  CB        30.5860   37.6360   37.9710 C.3    17  LYS17       0.0311
     25  CG        30.2510   38.4930   36.7470 C.3    17  LYS17       0.0038
     26  CD        28.7540   38.8620   36.7530 C.3    17  LYS17       0.0206
     27  CE        28.3370   39.6540   35.5190 C.3    17  LYS17       0.1093
     28  NZ        28.0360   38.7810   34.3490 N.3    17  LYS17      -0.1314
     29  N         33.4860   37.5380   36.2090 N.am   18  SER18      -0.1936
     30  CA        34.0970   37.0250   34.9820 C.3    18  SER18       0.2055
     31  C         35.2740   36.1090   35.3280 C.2    18  SER18       0.2643
     32  O         35.4640   35.0620   34.7050 O.2    18  SER18      -0.2714
     33  CB        34.5540   38.1760   34.0820 C.3    18  SER18       0.2130
     34  OG        33.4450   38.9810   33.7160 O.3    18  SER18      -0.2179
     35  N         36.0590   36.5030   36.3280 N.am   19  THR19      -0.1950
     36  CA        37.1840   35.6840   36.7800 C.3    19  THR19       0.1897
     37  C         36.6070   34.3900   37.3640 C.2    19  THR19       0.2313
     38  O         37.1420   33.3070   37.1410 O.2    19  THR19      -0.2863
     39  CB        38.0160   36.4080   37.8830 C.3    19  THR19       0.1794
     40  OG1       38.7120   37.5150   37.3000 O.3    19  THR19      -0.2208
     41  CG2       39.0370   35.4660   38.5200 C.3    19  THR19       0.0378
     42  N         41.8800   37.0450   28.3990 N.3    61  LYS61      -0.1245
     43  CA        40.9370   38.1340   28.1670 C.3    61  LYS61       0.1561
     44  C         41.4730   39.1280   27.1400 C.2    61  LYS61       0.2260
     45  O         40.7870   39.4610   26.1710 O.2    61  LYS61      -0.2867
     46  CB        40.6460   38.8610   29.4810 C.3    61  LYS61       0.0271
     47  CG        39.7530   40.0890   29.3330 C.3    61  LYS61       0.0035
     48  CD        39.5780   40.8050   30.6620 C.3    61  LYS61       0.0206
     49  CE        38.6690   42.0140   30.5130 C.3    61  LYS61       0.1093
     50  NZ        38.5810   42.8180   31.7700 N.3    61  LYS61      -0.1314
     51  N         31.9260   36.7730   46.7070 N.3   150  ASN150     -0.1225
     52  CA        33.3040   36.7790   46.2430 C.3   150  ASN150      0.1785
     53  C         34.1840   37.8180   46.9460 C.2   150  ASN150      0.2597
     54  O         33.6970   38.6800   47.6810 O.2   150  ASN150     -0.2718
     55  CB        33.2790   36.9830   44.7130 C.3   150  ASN150      0.1169
     56  CG        34.6090   36.6940   44.0380 C.2   150  ASN150      0.2627
     57  OD1       35.3890   35.8560   44.4880 O.2   150  ASN150     -0.2716
     58  ND2       34.8570   37.3790   42.9230 N.am  150  ASN150     -0.0877
     59  N         35.4910   37.7010   46.7230 N.am  151  LYS151     -0.1980
     60  CA        36.4940   38.5950   47.3010 C.3   151  LYS151      0.1596
     61  C         36.5760   38.4650   48.8160 C.2   151  LYS151      0.2287
     62  O         36.9130   39.4210   49.5030 O.2   151  LYS151     -0.2864
     63  CB        36.1980   40.0500   46.9220 C.3   151  LYS151      0.0298
     64  CG        36.1600   40.2870   45.4140 C.3   151  LYS151      0.0038
     65  CD        36.2200   41.7590   45.0790 C.3   151  LYS151      0.0206
     66  CE        36.1890   41.9780   43.5880 C.3   151  LYS151      0.1093
     67  NZ        36.3070   43.4160   43.2920 N.3   151  LYS151     -0.1314
     68  N         38.6730   37.2990   50.4120 N.3   153  ASP153     -0.1225
     69  CA        40.0570   37.5520   50.7910 C.3   153  ASP153      0.1805
     70  C         40.1960   39.0530   51.0740 C.2   153  ASP153      0.2598
     71  O         40.9940   39.4440   51.9080 O.2   153  ASP153     -0.2718
     72  CB        40.9930   37.1880   49.6490 C.3   153  ASP153      0.1424
     73  CG        40.5670   37.8420   48.3460 C.2   153  ASP153      0.3668
     74  OD1       39.4420   37.5470   47.9080 O.co2 153  ASP153     -0.2456
     75  OD2       41.3340   38.6480   47.7860 O.co2 153  ASP153     -0.2456
     76  N         39.4050   39.9020   50.4240 N.am  154  SER154     -0.1952
     77  CA        39.5660   41.3260   50.6950 C.3   154  SER154      0.1924
     78  C         39.0120   41.7670   52.0410 C.2   154  SER154      0.2314
     79  O         39.3310   42.8530   52.5040 O.2   154  SER154     -0.2863
     80  CB        38.9760   42.1970   49.5850 C.3   154  SER154      0.2116
     81  OG        37.5640   42.1160   49.5420 O.3   154  SER154     -0.2180
     82  N         36.5760   32.9580   46.6120 N.3   189  SER189     -0.1202
     83  CA        37.6010   33.8330   46.0870 C.3   189  SER189      0.2020
     84  C         37.8620   33.3080   44.6850 C.2   189  SER189      0.2619
     85  O         38.5280   32.2890   44.5170 O.2   189  SER189     -0.2717
     86  CB        38.8920   33.7680   46.8880 C.3   189  SER189      0.2103
     87  OG        39.8670   34.6050   46.2720 O.3   189  SER189     -0.2182
     88  N         37.3110   33.9970   43.6900 N.am  190  GLY190     -0.1942
     89  CA        37.4960   33.5930   42.3110 C.3   190  GLY190      0.2014
     90  C         38.9570   33.7050   41.9400 C.2   190  GLY190      0.2638
     91  O         39.4550   32.9750   41.0870 O.2   190  GLY190     -0.2714
     92  N         39.6620   34.6110   42.5990 N.am  191  TRP191     -0.1973
     93  CA        41.0680   34.7870   42.3030 C.3   191  TRP191      0.1640
     94  C         41.9550   33.7230   42.9450 C.2   191  TRP191      0.2290
     95  O         42.8330   33.1800   42.2820 O.2   191  TRP191     -0.2864
     96  CB        41.5260   36.1850   42.7280 C.3   191  TRP191      0.0576
     97  CG        42.9260   36.5220   42.2960 C.ar  191  TRP191      0.0006
     98  CD1       44.0910   36.1190   42.8890 C.ar  191  TRP191      0.0946
     99  CD2       43.3060   37.3140   41.1610 C.ar  191  TRP191      0.0152
    100  NE1       45.1740   36.6130   42.1920 N.ar  191  TRP191     -0.2442
    101  CE2       44.7210   37.3500   41.1290 C.ar  191  TRP191      0.0810
    102  CE3       42.5880   37.9960   40.1690 C.ar  191  TRP191      0.0012
    103  CZ2       45.4340   38.0440   40.1400 C.ar  191  TRP191      0.0191
    104  CZ3       43.2980   38.6880   39.1810 C.ar  191  TRP191      0.0001
    105  CH2       44.7070   38.7050   39.1780 C.ar  191  TRP191      0.0015
@<TRIPOS>BOND
     1    45    44    2
     2    44    43    1
     3    43    42    1
     4    43    46    1
     5    47    46    1
     6    47    48    1
     7    49    48    1
     8    49    50    1
     9    34    33    1
    10    33    30    1
    11    28    27    1
    12    32    31    2
    13    30    31    1
    14    30    29    1
    15    31    35   am
    16     6     5    1
    17    27    26    1
    18    29    22   am
    19    35    36    1
    20     5     2    1
    21     5     7    1
    22    23    22    2
    23    25    26    1
    24    25    24    1
    25    36    37    1
    26    36    39    1
    27    22    21    1
    28    38    37    2
    29     2     1    1
    30     2     3    1
    31    40    39    1
    32     4     3    2
    33    39    41    1
    34    24    21    1
    35     3     8   am
    36    21    20    1
    37    20    18   am
    38   105   104   ar
    39   105   103   ar
    40   104   102   ar
    41    18    19    2
    42    18    17    1
    43     8     9    1
    44    14    13   ar
    45    17    16    1
    46   103   101   ar
    47   102    99   ar
    48     9    10    1
    49     9    12    1
    50    13    15   ar
    51    13    12    1
    52    91    90    2
    53    10    11    2
    54   101    99   ar
    55   101   100   ar
    56    99    97   ar
    57    90    89    1
    58    90    92   am
    59   100    98   ar
    60    95    94    2
    61    97    96    1
    62    97    98   ar
    63    93    92    1
    64    93    96    1
    65    93    94    1
    66    89    88    1
    67    58    56   am
    68    67    66    1
    69    66    65    1
    70    88    84   am
    71    56    57    2
    72    56    55    1
    73    85    84    2
    74    84    83    1
    75    55    52    1
    76    65    64    1
    77    64    63    1
    78    83    82    1
    79    83    86    1
    80    52    51    1
    81    52    53    1
    82    87    86    1
    83    59    53   am
    84    59    60    1
    85    63    60    1
    86    53    54    2
    87    60    61    1
    88    75    73   ar
    89    74    73   ar
    90    73    72    1
    91    61    62    2
    92    81    80    1
    93    80    77    1
    94    72    69    1
    95    68    69    1
    96    76    77    1
    97    76    70   am
    98    77    78    1
    99    69    70    1
   100    70    71    2
   101    78    79    2
