@<TRIPOS>MOLECULE
tmp/1ijiA00.pdb
 106 98 0 0 0
SMALL
GASTEIGER

@<TRIPOS>ATOM
      1  N         49.6950   56.2610  -12.3130 N.3    34  ALA34      -0.1245
      2  CA        50.4330   55.7610  -11.1510 C.3    34  ALA34       0.1562
      3  C         49.8220   56.0480   -9.7760 C.2    34  ALA34       0.2260
      4  O         50.4630   55.8060   -8.7520 O.2    34  ALA34      -0.2867
      5  CB        51.8630   56.3100  -11.1960 C.3    34  ALA34       0.0290
      6  N         59.5120   53.0090    1.2950 N.3    81  GLY81      -0.1210
      7  CA        58.2030   52.7030    0.7400 C.3    81  GLY81       0.1956
      8  C         57.6080   51.3780    1.1920 C.2    81  GLY81       0.2612
      9  O         58.2860   50.5470    1.7990 O.2    81  GLY81      -0.2717
     10  N         56.3240   51.1940    0.8980 N.am   82  ALA82      -0.1965
     11  CA        55.6240   49.9650    1.2300 C.3    82  ALA82       0.1728
     12  C         56.3120   48.8250    0.5010 C.2    82  ALA82       0.2616
     13  O         56.2740   47.6830    0.9530 O.2    82  ALA82      -0.2715
     14  CB        54.1530   50.0520    0.8020 C.3    82  ALA82       0.0334
     15  N         56.9400   49.1370   -0.6340 N.am   83  ASP83      -0.1971
     16  CA        57.6450   48.1140   -1.4040 C.3    83  ASP83       0.1709
     17  C         58.6330   47.3720   -0.5080 C.2    83  ASP83       0.2293
     18  O         58.6880   46.1480   -0.5250 O.2    83  ASP83      -0.2864
     19  CB        58.4370   48.7140   -2.5680 C.3    83  ASP83       0.1436
     20  CG        57.6020   48.9500   -3.8090 C.2    83  ASP83       0.3671
     21  OD1       56.5450   48.2980   -3.9960 O.co2  83  ASP83      -0.2456
     22  OD2       58.0420   49.7890   -4.6220 O.co2  83  ASP83      -0.2456
     23  N         47.6030   44.1040   -6.2660 N.3   108  TYR108     -0.1241
     24  CA        48.9440   44.6820   -6.4430 C.3   108  TYR108      0.1605
     25  C         49.9670   43.6290   -6.8810 C.2   108  TYR108      0.2264
     26  O         49.9870   42.5180   -6.3500 O.2   108  TYR108     -0.2867
     27  CB        49.4140   45.3140   -5.1290 C.3   108  TYR108      0.0534
     28  CG        50.5980   46.2530   -5.2490 C.ar  108  TYR108     -0.0201
     29  CD1       51.5320   46.3410   -4.2220 C.ar  108  TYR108     -0.0009
     30  CD2       50.7440   47.1050   -6.3490 C.ar  108  TYR108     -0.0009
     31  CE1       52.5740   47.2490   -4.2760 C.ar  108  TYR108      0.0417
     32  CE2       51.7840   48.0210   -6.4110 C.ar  108  TYR108      0.0417
     33  CZ        52.7000   48.0900   -5.3640 C.ar  108  TYR108      0.1957
     34  OH        53.7350   49.0050   -5.3860 O.3   108  TYR108     -0.2866
     35  N         45.0790   43.5360    0.0910 N.3   151  CYS151     -0.1235
     36  CA        45.0490   44.9760   -0.1470 C.3   151  CYS151      0.1677
     37  C         43.6400   45.5100    0.0590 C.2   151  CYS151      0.2270
     38  O         42.6790   45.0440   -0.5640 O.2   151  CYS151     -0.2867
     39  CB        45.5390   45.2790   -1.5740 C.3   151  CYS151      0.0956
     40  SG        45.9000   47.0380   -1.9740 S.3   151  CYS151     -0.0801
     41  N         43.8000   47.5010   -4.9360 N.3   155  ASN155     -0.1240
     42  CA        44.3090   48.1000   -6.1670 C.3   155  ASN155      0.1653
     43  C         44.3660   46.8670   -7.0650 C.2   155  ASN155      0.2266
     44  O         44.9360   45.8400   -6.6720 O.2   155  ASN155     -0.2867
     45  CB        45.7110   48.6680   -5.9230 C.3   155  ASN155      0.1155
     46  CG        46.3400   49.2810   -7.1700 C.2   155  ASN155      0.2627
     47  OD1       45.7890   49.2140   -8.2740 O.2   155  ASN155     -0.2716
     48  ND2       47.5130   49.8820   -6.9940 N.am  155  ASN155     -0.0877
     49  N         47.5310   45.7410    3.2430 N.3   182  ASP182     -0.1239
     50  CA        48.1940   46.8160    2.5100 C.3   182  ASP182      0.1674
     51  C         47.2140   47.9780    2.5080 C.2   182  ASP182      0.2266
     52  O         46.2240   47.9570    1.7830 O.2   182  ASP182     -0.2867
     53  CB        48.4630   46.3650    1.0730 C.3   182  ASP182      0.1410
     54  CG        49.3430   47.3320    0.3010 C.2   182  ASP182      0.3668
     55  OD1       49.3330   48.5440    0.6160 O.co2 182  ASP182     -0.2456
     56  OD2       50.0280   46.8780   -0.6440 O.co2 182  ASP182     -0.2456
     57  N         47.7530   51.0890    1.5460 N.3   184  ALA184     -0.1231
     58  CA        48.3460   52.1400    0.7270 C.3   184  ALA184      0.1694
     59  C         47.3780   53.2840    0.4660 C.2   184  ALA184      0.2592
     60  O         47.7850   54.4310    0.3070 O.2   184  ALA184     -0.2718
     61  CB        48.7980   51.5570   -0.5970 C.3   184  ALA184      0.0304
     62  N         46.0920   52.9650    0.4190 N.am  185  TYR185     -0.1976
     63  CA        45.0910   53.9720    0.1340 C.3   185  TYR185      0.1639
     64  C         44.1180   54.2480    1.2580 C.2   185  TYR185      0.2290
     65  O         43.0800   54.8700    1.0410 O.2   185  TYR185     -0.2864
     66  CB        44.3280   53.5650   -1.1260 C.3   185  TYR185      0.0560
     67  CG        45.2490   53.3480   -2.3090 C.ar  185  TYR185     -0.0198
     68  CD1       45.9270   52.1370   -2.4890 C.ar  185  TYR185     -0.0009
     69  CD2       45.5150   54.3900   -3.2000 C.ar  185  TYR185     -0.0009
     70  CE1       46.8530   51.9800   -3.5310 C.ar  185  TYR185      0.0417
     71  CE2       46.4380   54.2410   -4.2330 C.ar  185  TYR185      0.0417
     72  CZ        47.1040   53.0440   -4.3940 C.ar  185  TYR185      0.1957
     73  OH        48.0380   52.9390   -5.4040 O.3   185  TYR185     -0.2866
     74  N         51.9710   54.1550    3.3820 N.3   209  THR209     -0.1218
     75  CA        52.8600   54.8770    2.4820 C.3   209  THR209      0.1862
     76  C         52.5950   56.3720    2.4290 C.2   209  THR209      0.2287
     77  O         51.5110   56.8280    2.7770 O.2   209  THR209     -0.2866
     78  CB        52.7220   54.3760    1.0530 C.3   209  THR209      0.1770
     79  OG1       53.6020   55.1330    0.2130 O.3   209  THR209     -0.2211
     80  CG2       51.2850   54.5820    0.5520 C.3   209  THR209      0.0375
     81  N         53.4280   57.8670   -0.5270 N.3   211  SER211     -0.1202
     82  CA        53.4260   58.0600   -1.9780 C.3   211  SER211      0.2020
     83  C         52.0950   58.4250   -2.6190 C.2   211  SER211      0.2618
     84  O         52.0720   58.8710   -3.7610 O.2   211  SER211     -0.2717
     85  CB        53.9300   56.8010   -2.6960 C.3   211  SER211      0.2103
     86  OG        55.1540   56.3250   -2.1790 O.3   211  SER211     -0.2182
     87  N         50.9910   58.2390   -1.9090 N.am  212  LYS212     -0.1979
     88  CA        49.6860   58.5050   -2.4980 C.3   212  LYS212      0.1596
     89  C         49.0170   59.7660   -1.9630 C.2   212  LYS212      0.2287
     90  O         49.2100   60.8590   -2.4910 O.2   212  LYS212     -0.2864
     91  CB        48.7780   57.3090   -2.2140 C.3   212  LYS212      0.0298
     92  CG        49.3470   55.9790   -2.6790 C.3   212  LYS212      0.0038
     93  CD        49.9900   56.0960   -4.0400 C.3   212  LYS212      0.0206
     94  CE        50.4370   54.8960   -4.8560 C.3   212  LYS212      0.1093
     95  NZ        51.1970   53.7760   -4.2680 N.3   212  LYS212     -0.1314
     96  N         59.9700   58.0840   -1.5850 N.3   220  ARG220     -0.1245
     97  CA        60.1500   56.6460   -1.3920 C.3   220  ARG220      0.1563
     98  C         60.1420   56.3590    0.1030 C.2   220  ARG220      0.2260
     99  O         61.0770   55.7610    0.6260 O.2   220  ARG220     -0.2867
    100  CB        61.4850   56.1790   -1.9850 C.3   220  ARG220      0.0307
    101  CG        61.6630   56.4770   -3.4610 C.3   220  ARG220      0.0489
    102  CD        60.4790   56.0000   -4.2590 C.3   220  ARG220      0.2205
    103  NE        60.1860   54.5870   -4.0280 N.pl3 220  ARG220     -0.0865
    104  CZ        58.9840   54.1240   -3.6840 C.cat 220  ARG220      0.5346
    105  NH1       57.9680   54.9640   -3.5250 N.pl3 220  ARG220      0.1354
    106  NH2       58.7870   52.8250   -3.5210 N.pl3 220  ARG220      0.1354
@<TRIPOS>BOND
     1     1     2    1
     2     5     2    1
     3     2     3    1
     4     3     4    2
     5    47    46    2
     6    46    48   am
     7    46    45    1
     8    43    44    2
     9    43    42    1
    10    25    24    1
    11    25    26    2
    12    24    23    1
    13    24    27    1
    14    32    30   ar
    15    32    33   ar
    16    30    28   ar
    17    42    45    1
    18    42    41    1
    19    73    72    1
    20    34    33    1
    21    33    31   ar
    22    28    27    1
    23    28    29   ar
    24    94    95    1
    25    94    93    1
    26    22    20   ar
    27    72    71   ar
    28    72    70   ar
    29    31    29   ar
    30   102   103    1
    31   102   101    1
    32    71    69   ar
    33    93    92    1
    34   103   104    2
    35    21    20   ar
    36    20    19    1
    37    84    83    2
    38   104   105    1
    39   104   106    1
    40    70    68   ar
    41   101   100    1
    42    69    67   ar
    43    85    86    1
    44    85    82    1
    45    92    91    1
    46    83    82    1
    47    83    87   am
    48    19    16    1
    49    88    91    1
    50    88    89    1
    51    88    87    1
    52    90    89    2
    53    68    67   ar
    54    67    66    1
    55   100    97    1
    56    82    81    1
    57    40    39    1
    58    96    97    1
    59    39    36    1
    60    16    15    1
    61    16    17    1
    62    97    98    1
    63    66    63    1
    64    56    54   ar
    65    15    12   am
    66    61    58    1
    67    38    37    2
    68    18    17    2
    69    36    37    1
    70    36    35    1
    71    98    99    2
    72    63    62    1
    73    63    64    1
    74    79    78    1
    75    54    55   ar
    76    54    53    1
    77    60    59    2
    78    62    59   am
    79    59    58    1
    80    12    13    2
    81    12    11    1
    82    80    78    1
    83    58    57    1
    84     7     8    1
    85     7     6    1
    86    14    11    1
    87    10     8   am
    88    10    11    1
    89    65    64    2
    90    78    75    1
    91    53    50    1
    92     8     9    2
    93    52    51    2
    94    76    75    1
    95    76    77    2
    96    75    74    1
    97    51    50    1
    98    50    49    1
