@<TRIPOS>MOLECULE
tmp/1ijrA00.pdb
 157 150 0 0 0
SMALL
GASTEIGER

@<TRIPOS>ATOM
      1  N         70.2120   24.5750   23.7940 N.3    12  ARG12      -0.1245
      2  CA        69.0650   25.3420   24.2650 C.3    12  ARG12       0.1563
      3  C         68.7420   26.4200   23.2360 C.2    12  ARG12       0.2260
      4  O         67.5770   26.7090   22.9650 O.2    12  ARG12      -0.2867
      5  CB        69.3700   25.9960   25.6170 C.3    12  ARG12       0.0307
      6  CG        68.2670   26.9180   26.1130 C.3    12  ARG12       0.0489
      7  CD        68.7440   27.8210   27.2340 C.3    12  ARG12       0.2205
      8  NE        68.0190   27.5430   28.4660 N.pl3  12  ARG12      -0.0865
      9  CZ        67.1050   28.3420   29.0010 C.cat  12  ARG12       0.5346
     10  NH1       66.5020   27.9870   30.1210 N.pl3  12  ARG12       0.1354
     11  NH2       66.8020   29.4980   28.4330 N.pl3  12  ARG12       0.1354
     12  N         64.9030   17.6170   24.4160 N.3    32  ARG32      -0.1245
     13  CA        66.3440   17.5950   24.1870 C.3    32  ARG32       0.1563
     14  C         67.0780   17.2390   25.4780 C.2    32  ARG32       0.2260
     15  O         66.4630   17.1120   26.5310 O.2    32  ARG32      -0.2867
     16  CB        66.7860   18.9910   23.7490 C.3    32  ARG32       0.0307
     17  CG        66.3610   20.0650   24.7380 C.3    32  ARG32       0.0489
     18  CD        66.6110   21.4710   24.2470 C.3    32  ARG32       0.2205
     19  NE        66.1220   22.4570   25.2090 N.pl3  32  ARG32      -0.0865
     20  CZ        66.8570   22.9770   26.1880 C.cat  32  ARG32       0.5346
     21  NH1       68.1210   22.6130   26.3430 N.pl3  32  ARG32       0.1354
     22  NH2       66.3270   23.8700   27.0080 N.pl3  32  ARG32       0.1354
     23  N         69.5850   18.0550   28.6120 N.3    34  SER34      -0.1202
     24  CA        69.8330   19.2610   29.3970 C.3    34  SER34       0.2020
     25  C         71.2970   19.6830   29.2530 C.2    34  SER34       0.2619
     26  O         72.1670   18.8480   29.0040 O.2    34  SER34      -0.2717
     27  CB        69.5000   19.0030   30.8750 C.3    34  SER34       0.2103
     28  OG        69.6930   20.1640   31.6730 O.3    34  SER34      -0.2182
     29  N         71.5630   20.9810   29.3580 N.am   35  GLU35      -0.1965
     30  CA        72.9320   21.4810   29.2650 C.3    35  GLU35       0.1733
     31  C         73.5390   21.5410   30.6690 C.2    35  GLU35       0.2617
     32  O         74.7460   21.3580   30.8510 O.2    35  GLU35      -0.2715
     33  CB        72.9590   22.8710   28.6290 C.3    35  GLU35       0.0429
     34  CG        72.4250   22.9270   27.2110 C.3    35  GLU35       0.1163
     35  CD        72.6540   24.2810   26.5470 C.2    35  GLU35       0.3649
     36  OE1       72.7660   24.3200   25.3050 O.co2  35  GLU35      -0.2457
     37  OE2       72.7280   25.3070   27.2610 O.co2  35  GLU35      -0.2457
     38  N         72.6760   21.7810   31.6540 N.am   36  SER36      -0.1950
     39  CA        73.0780   21.8760   33.0510 C.3    36  SER36       0.1924
     40  C         73.4550   20.5230   33.6390 C.2    36  SER36       0.2314
     41  O         74.4730   20.3970   34.3230 O.2    36  SER36      -0.2863
     42  CB        71.9480   22.4910   33.8880 C.3    36  SER36       0.2116
     43  OG        71.6320   23.8050   33.4580 O.3    36  SER36      -0.2180
     44  N         65.1270   18.0950   28.7890 N.3    42  CYS42      -0.1235
     45  CA        64.3690   19.3230   28.9430 C.3    42  CYS42       0.1677
     46  C         63.2450   19.3050   27.9300 C.2    42  CYS42       0.2270
     47  O         63.3650   18.7090   26.8630 O.2    42  CYS42      -0.2867
     48  CB        65.2440   20.5560   28.7080 C.3    42  CYS42       0.0956
     49  SG        66.3400   20.9780   30.0660 S.3    42  CYS42      -0.0801
     50  N         59.4230   28.3110   26.3410 N.3    57  LYS57      -0.1231
     51  CA        59.6180   27.9940   27.7550 C.3    57  LYS57       0.1693
     52  C         60.2530   26.6220   27.9330 C.2    57  LYS57       0.2592
     53  O         59.9030   25.6810   27.2270 O.2    57  LYS57      -0.2718
     54  CB        58.2820   28.0800   28.4930 C.3    57  LYS57       0.0285
     55  CG        57.7000   29.4830   28.4490 C.3    57  LYS57       0.0035
     56  CD        56.3400   29.5760   29.0860 C.3    57  LYS57       0.0206
     57  CE        55.8050   30.9810   28.9200 C.3    57  LYS57       0.1093
     58  NZ        54.4100   31.0540   29.3890 N.3    57  LYS57      -0.1314
     59  N         61.1950   26.5190   28.8710 N.am   58  HIS58      -0.1962
     60  CA        61.8980   25.2650   29.1350 C.3    58  HIS58       0.1787
     61  C         61.5830   24.6750   30.5070 C.2    58  HIS58       0.2620
     62  O         61.6470   25.3670   31.5200 O.2    58  HIS58      -0.2715
     63  CB        63.4040   25.4750   29.0310 C.3    58  HIS58       0.0785
     64  CG        63.8290   26.2110   27.8030 C.ar   58  HIS58       0.0821
     65  ND1       64.0720   25.5790   26.6020 N.ar   58  HIS58      -0.2267
     66  CD2       64.0510   27.5290   27.5880 C.ar   58  HIS58       0.1154
     67  CE1       64.4270   26.4770   25.6990 C.ar   58  HIS58       0.1986
     68  NE2       64.4230   27.6660   26.2720 N.ar   58  HIS58      -0.2212
     69  N         61.2750   23.3830   30.5300 N.am   59  TYR59      -0.1960
     70  CA        60.9650   22.6700   31.7600 C.3    59  TYR59       0.1771
     71  C         62.0060   21.5880   31.9440 C.2    59  TYR59       0.2619
     72  O         62.4050   20.9410   30.9790 O.2    59  TYR59      -0.2715
     73  CB        59.5980   22.0020   31.6650 C.3    59  TYR59       0.0574
     74  CG        58.4460   22.9630   31.7130 C.ar   59  TYR59      -0.0198
     75  CD1       57.9850   23.6000   30.5560 C.ar   59  TYR59      -0.0009
     76  CD2       57.7940   23.2260   32.9150 C.ar   59  TYR59      -0.0009
     77  CE1       56.8960   24.4810   30.6070 C.ar   59  TYR59       0.0417
     78  CE2       56.7120   24.0970   32.9760 C.ar   59  TYR59       0.0417
     79  CZ        56.2660   24.7170   31.8250 C.ar   59  TYR59       0.1957
     80  OH        55.1850   25.5580   31.9070 O.3    59  TYR59      -0.2866
     81  N         62.4720   21.4060   33.1720 N.am   60  LYS60      -0.1977
     82  CA        63.4500   20.3660   33.4360 C.3    60  LYS60       0.1596
     83  C         62.7170   19.0530   33.6490 C.2    60  LYS60       0.2287
     84  O         61.6630   19.0190   34.2830 O.2    60  LYS60      -0.2864
     85  CB        64.2830   20.6950   34.6760 C.3    60  LYS60       0.0298
     86  CG        65.2220   21.8660   34.4940 C.3    60  LYS60       0.0038
     87  CD        66.1560   22.0300   35.6750 C.3    60  LYS60       0.0206
     88  CE        67.2270   23.0470   35.3560 C.3    60  LYS60       0.1093
     89  NZ        68.1550   23.2650   36.4800 N.3    60  LYS60      -0.1314
     90  N         63.1540   15.7680   35.3990 N.3    62  ARG62      -0.1245
     91  CA        63.9470   15.1100   36.4240 C.3    62  ARG62       0.1563
     92  C         63.7420   13.6070   36.4370 C.2    62  ARG62       0.2260
     93  O         62.6420   13.1100   36.2000 O.2    62  ARG62      -0.2867
     94  CB        63.6440   15.7380   37.7880 C.3    62  ARG62       0.0307
     95  CG        63.9700   17.2260   37.7960 C.3    62  ARG62       0.0489
     96  CD        63.7460   17.9070   39.1260 C.3    62  ARG62       0.2205
     97  NE        64.6850   19.0160   39.2840 N.pl3  62  ARG62      -0.0865
     98  CZ        64.4310   20.2790   38.9650 C.cat  62  ARG62       0.5346
     99  NH1       63.2550   20.6240   38.4680 N.pl3  62  ARG62       0.1354
    100  NH2       65.3690   21.1970   39.1240 N.pl3  62  ARG62       0.1354
    101  N         58.1330   16.1490   35.7420 N.3    71  ILE71      -0.1231
    102  CA        58.4280   17.5750   35.6590 C.3    71  ILE71       0.1692
    103  C         58.0420   18.1030   37.0460 C.2    71  ILE71       0.2592
    104  O         58.7610   18.9010   37.6570 O.2    71  ILE71      -0.2718
    105  CB        57.5900   18.2800   34.5600 C.3    71  ILE71       0.0266
    106  CG1       57.8890   17.6640   33.1880 C.3    71  ILE71       0.0019
    107  CG2       57.9030   19.7730   34.5480 C.3    71  ILE71       0.0020
    108  CD1       57.2000   18.3530   32.0280 C.3    71  ILE71       0.0001
    109  N         56.9090   17.6040   37.5320 N.am   72  SER72      -0.1952
    110  CA        56.3720   17.9190   38.8490 C.3    72  SER72       0.1924
    111  C         56.2890   16.5920   39.6060 C.2    72  SER72       0.2314
    112  O         55.6800   15.6390   39.1230 O.2    72  SER72      -0.2863
    113  CB        54.9720   18.5130   38.7260 C.3    72  SER72       0.2116
    114  OG        54.2830   18.4440   39.9630 O.3    72  SER72      -0.2180
    115  N         54.4040   15.4060   41.5940 N.3    74  ARG74      -0.1245
    116  CA        53.0450   14.9040   41.8040 C.3    74  ARG74       0.1563
    117  C         52.5990   13.8420   40.7980 C.2    74  ARG74       0.2260
    118  O         51.7330   13.0290   41.1080 O.2    74  ARG74      -0.2867
    119  CB        52.0380   16.0500   41.8040 C.3    74  ARG74       0.0307
    120  CG        52.1830   17.0400   42.9460 C.3    74  ARG74       0.0489
    121  CD        51.1970   18.1920   42.7670 C.3    74  ARG74       0.2205
    122  NE        51.4520   18.9710   41.5470 N.pl3  74  ARG74      -0.0865
    123  CZ        50.7660   18.8610   40.4060 C.cat  74  ARG74       0.5346
    124  NH1       51.0890   19.6200   39.3650 N.pl3  74  ARG74       0.1354
    125  NH2       49.7580   17.9970   40.2990 N.pl3  74  ARG74       0.1354
    126  N         50.7740   15.2090   28.7820 N.3    87  TYR87      -0.1241
    127  CA        50.7110   16.6540   28.5950 C.3    87  TYR87       0.1605
    128  C         50.1420   17.0690   27.2480 C.2    87  TYR87       0.2264
    129  O         49.9640   18.2560   26.9800 O.2    87  TYR87      -0.2867
    130  CB        52.0690   17.2920   28.8570 C.3    87  TYR87       0.0534
    131  CG        52.4560   17.2500   30.3190 C.ar   87  TYR87      -0.0201
    132  CD1       53.4580   16.3910   30.7730 C.ar   87  TYR87      -0.0009
    133  CD2       51.8090   18.0600   31.2510 C.ar   87  TYR87      -0.0009
    134  CE1       53.8060   16.3360   32.1250 C.ar   87  TYR87       0.0417
    135  CE2       52.1490   18.0170   32.6050 C.ar   87  TYR87       0.0417
    136  CZ        53.1480   17.1530   33.0370 C.ar   87  TYR87       0.1957
    137  OH        53.4800   17.1010   34.3780 O.3    87  TYR87      -0.2866
    138  N         47.7320   20.4560   32.5290 N.3    92  ASP92      -0.1225
    139  CA        47.9670   19.9920   33.9020 C.3    92  ASP92       0.1805
    140  C         49.1320   20.7200   34.6080 C.2    92  ASP92       0.2598
    141  O         50.0670   20.0880   35.1130 O.2    92  ASP92      -0.2718
    142  CB        48.1960   18.4680   33.8560 C.3    92  ASP92       0.1424
    143  CG        48.0850   17.7940   35.2170 C.2    92  ASP92       0.3668
    144  OD1       47.3140   18.2700   36.0740 O.co2  92  ASP92      -0.2456
    145  OD2       48.7590   16.7570   35.4190 O.co2  92  ASP92      -0.2456
    146  N         49.0790   22.0500   34.6080 N.am   93  GLY93      -0.1942
    147  CA        50.1270   22.8370   35.2320 C.3    93  GLY93       0.2014
    148  C         51.0680   23.4980   34.2410 C.2    93  GLY93       0.2638
    149  O         51.6410   24.5590   34.5210 O.2    93  GLY93      -0.2714
    150  N         51.2630   22.8570   33.0920 N.am   94  LEU94      -0.1977
    151  CA        52.1330   23.3980   32.0480 C.3    94  LEU94       0.1596
    152  C         51.5830   24.7170   31.4920 C.2    94  LEU94       0.2287
    153  O         50.3840   24.9750   31.5760 O.2    94  LEU94      -0.2864
    154  CB        52.2880   22.3770   30.9180 C.3    94  LEU94       0.0297
    155  CG        53.6950   21.8300   30.6700 C.3    94  LEU94       0.0022
    156  CD1       54.3020   21.3030   31.9570 C.3    94  LEU94       0.0001
    157  CD2       53.6250   20.7380   29.6210 C.3    94  LEU94       0.0001
@<TRIPOS>BOND
     1     4     3    2
     2     3     2    1
     3    16    13    1
     4    16    17    1
     5     1     2    1
     6    13    12    1
     7    13    14    1
     8    18    17    1
     9    18    19    1
    10     2     5    1
    11    19    20    2
    12    36    35   ar
    13    14    15    2
    14     5     6    1
    15    67    68   ar
    16    67    65   ar
    17     6     7    1
    18    20    21    1
    19    20    22    1
    20    68    66   ar
    21    50    51    1
    22    35    34    1
    23    35    37   ar
    24    65    64   ar
    25    47    46    2
    26   129   128    2
    27    34    33    1
    28    53    52    2
    29     7     8    1
    30   128   127    1
    31    66    64   ar
    32    51    52    1
    33    51    54    1
    34    64    63    1
    35    46    45    1
    36    52    59   am
    37    11     9    1
    38    55    54    1
    39    55    56    1
    40     8     9    2
    41   127   126    1
    42   127   130    1
    43    23    24    1
    44    33    30    1
    45    48    45    1
    46    48    49    1
    47    44    45    1
    48   130   131    1
    49    59    60    1
    50    57    56    1
    51    57    58    1
    52     9    10    1
    53    26    25    2
    54    63    60    1
    55    60    61    1
    56    25    29   am
    57    25    24    1
    58    30    29    1
    59    30    31    1
    60    24    27    1
    61   157   155    1
    62   131   132   ar
    63   131   133   ar
    64    61    69   am
    65    61    62    2
    66    69    70    1
    67    75    77   ar
    68    75    74   ar
    69    77    79   ar
    70    31    32    2
    71    31    38   am
    72   155   154    1
    73   155   156    1
    74   132   134   ar
    75    27    28    1
    76   154   151    1
    77    72    71    2
    78   133   135   ar
    79   152   153    2
    80   152   151    1
    81    38    39    1
    82    73    74    1
    83    73    70    1
    84    74    76   ar
    85    70    71    1
    86    79    80    1
    87    79    78   ar
    88    71    81   am
    89   108   106    1
    90   151   150    1
    91   134   136   ar
    92   138   139    1
    93   135   136   ar
    94    76    78   ar
    95   136   137    1
    96    39    40    1
    97    39    42    1
    98   150   148   am
    99    81    82    1
   100   106   105    1
   101    82    83    1
   102    82    85    1
   103    43    42    1
   104    40    41    2
   105    83    84    2
   106   142   139    1
   107   142   143    1
   108   139   140    1
   109   148   149    2
   110   148   147    1
   111    86    85    1
   112    86    87    1
   113   107   105    1
   114   105   102    1
   115   146   140   am
   116   146   147    1
   117   140   141    2
   118   143   145   ar
   119   143   144   ar
   120    88    87    1
   121    88    89    1
   122    90    91    1
   123   102   101    1
   124   102   103    1
   125    93    92    2
   126    91    92    1
   127    91    94    1
   128   103   109   am
   129   103   104    2
   130   109   110    1
   131    94    95    1
   132    95    96    1
   133    99    98    1
   134   113   110    1
   135   113   114    1
   136   110   111    1
   137    98   100    1
   138    98    97    2
   139   112   111    2
   140    96    97    1
   141   124   123    1
   142   125   123    1
   143   123   122    2
   144   117   118    2
   145   117   116    1
   146   122   121    1
   147   115   116    1
   148   116   119    1
   149   119   120    1
   150   121   120    1
