@<TRIPOS>MOLECULE
tmp/1ik3A01.pdb
 230 216 0 0 0
SMALL
GASTEIGER

@<TRIPOS>ATOM
      1  N         16.8380    6.7590    6.2190 N.3   252  LEU252     -0.1231
      2  CA        16.6050    6.0240    7.4580 C.3   252  LEU252      0.1693
      3  C         16.3650    6.8980    8.6780 C.2   252  LEU252      0.2592
      4  O         15.4680    6.6030    9.4730 O.2   252  LEU252     -0.2718
      5  CB        17.7660    5.0620    7.7270 C.3   252  LEU252      0.0284
      6  CG        17.9640    3.9610    6.6760 C.3   252  LEU252      0.0019
      7  CD1       19.1140    3.0660    7.0830 C.3   252  LEU252      0.0001
      8  CD2       16.6860    3.1510    6.4950 C.3   252  LEU252      0.0001
      9  N         17.1510    7.9610    8.8480 N.am  253  THR253     -0.1953
     10  CA        16.9470    8.8340   10.0010 C.3   253  THR253      0.1897
     11  C         15.5210    9.3900    9.9710 C.2   253  THR253      0.2313
     12  O         14.8680    9.5060   11.0130 O.2   253  THR253     -0.2863
     13  CB        17.9520   10.0120   10.0390 C.3   253  THR253      0.1794
     14  OG1       17.8520   10.7850    8.8340 O.3   253  THR253     -0.2208
     15  CG2       19.3650    9.4900   10.2050 C.3   253  THR253      0.0378
     16  N         13.2400    6.9840   11.2930 N.3   256  LEU256     -0.1245
     17  CA        13.3620    6.8800   12.7460 C.3   256  LEU256      0.1561
     18  C         12.6390    8.0370   13.4330 C.2   256  LEU256      0.2260
     19  O         11.9330    7.8360   14.4170 O.2   256  LEU256     -0.2867
     20  CB        14.8350    6.8830   13.1620 C.3   256  LEU256      0.0270
     21  CG        15.2600    5.9170   14.2730 C.3   256  LEU256      0.0019
     22  CD1       14.4340    6.1640   15.5200 C.3   256  LEU256      0.0001
     23  CD2       15.1000    4.4890   13.7900 C.3   256  LEU256      0.0001
     24  N         24.9400   -9.7920   19.7200 N.3   351  VAL351     -0.1245
     25  CA        24.7900   -8.3570   19.5150 C.3   351  VAL351      0.1561
     26  C         25.7720   -7.5690   20.3990 C.2   351  VAL351      0.2260
     27  O         26.1600   -6.4400   20.0770 O.2   351  VAL351     -0.2867
     28  CB        23.3040   -7.9470   19.8080 C.3   351  VAL351      0.0252
     29  CG1       23.0580   -7.8530   21.3070 C.3   351  VAL351      0.0019
     30  CG2       22.9600   -6.6460   19.1060 C.3   351  VAL351      0.0019
     31  N         21.1330   -6.1600   27.5090 N.3   489  SER489     -0.1217
     32  CA        20.4580   -5.3960   26.4680 C.3   489  SER489      0.1889
     33  C         20.6700   -3.9110   26.6770 C.2   489  SER489      0.2288
     34  O         20.9690   -3.1660   25.7440 O.2   489  SER489     -0.2866
     35  CB        18.9580   -5.6700   26.4970 C.3   489  SER489      0.2089
     36  OG        18.6340   -6.7720   25.6800 O.3   489  SER489     -0.2183
     37  N         24.4850   -2.7560   26.4750 N.3   492  HIS492     -0.1226
     38  CA        24.8120   -2.7740   25.0500 C.3   492  HIS492      0.1752
     39  C         24.3020   -1.5000   24.3940 C.2   492  HIS492      0.2596
     40  O         25.0610   -0.6970   23.8600 O.2   492  HIS492     -0.2718
     41  CB        24.1610   -3.9860   24.3690 C.3   492  HIS492      0.0759
     42  CG        24.1620   -3.9080   22.8740 C.ar  492  HIS492      0.0818
     43  ND1       23.0440   -3.5680   22.1410 N.ar  492  HIS492     -0.2268
     44  CD2       25.1540   -4.1040   21.9740 C.ar  492  HIS492      0.1154
     45  CE1       23.3470   -3.5550   20.8570 C.ar  492  HIS492      0.1986
     46  NE2       24.6220   -3.8780   20.7290 N.ar  492  HIS492     -0.2212
     47  N         22.9950   -1.3230   24.4540 N.am  493  GLN493     -0.1965
     48  CA        22.3420   -0.1710   23.8710 C.3   493  GLN493      0.1733
     49  C         22.9100    1.1850   24.2800 C.2   493  GLN493      0.2616
     50  O         23.1630    2.0390   23.4390 O.2   493  GLN493     -0.2715
     51  CB        20.8620   -0.2320   24.2140 C.3   493  GLN493      0.0408
     52  CG        20.5620    0.0170   25.6490 C.3   493  GLN493      0.0908
     53  CD        20.2760    1.4690   25.8980 C.2   493  GLN493      0.2608
     54  OE1       20.5750    2.3230   25.0570 O.2   493  GLN493     -0.2717
     55  NE2       19.6950    1.7680   27.0550 N.am  493  GLN493     -0.0878
     56  N         23.1220    1.3880   25.5700 N.am  494  LEU494     -0.1977
     57  CA        23.6250    2.6710   26.0400 C.3   494  LEU494      0.1596
     58  C         25.1490    2.8570   25.9950 C.2   494  LEU494      0.2287
     59  O         25.6440    3.9600   25.7430 O.2   494  LEU494     -0.2864
     60  CB        23.1130    2.9270   27.4700 C.3   494  LEU494      0.0297
     61  CG        22.3410    4.2220   27.7720 C.3   494  LEU494      0.0022
     62  CD1       23.0280    5.4220   27.1440 C.3   494  LEU494      0.0001
     63  CD2       20.9500    4.1200   27.2550 C.3   494  LEU494      0.0001
     64  N         26.9940    0.4130   22.2100 N.3   497  HIS497     -0.1226
     65  CA        26.5340    1.0920   21.0090 C.3   497  HIS497      0.1752
     66  C         26.5790    2.6360   21.0910 C.2   497  HIS497      0.2596
     67  O         27.5280    3.2550   20.6060 O.2   497  HIS497     -0.2718
     68  CB        25.1200    0.5910   20.7060 C.3   497  HIS497      0.0759
     69  CG        24.4820    1.2220   19.5080 C.ar  497  HIS497      0.0818
     70  ND1       23.1660    1.6080   19.4490 N.ar  497  HIS497     -0.2268
     71  CD2       25.0140    1.5450   18.2990 C.ar  497  HIS497      0.1154
     72  CE1       22.9420    2.1370   18.2460 C.ar  497  HIS497      0.1986
     73  NE2       24.0320    2.1260   17.5060 N.ar  497  HIS497     -0.2212
     74  N         25.5830    3.2550   21.7210 N.am  498  TRP498     -0.1976
     75  CA        25.5460    4.7060   21.8040 C.3   498  TRP498      0.1640
     76  C         26.8170    5.3910   22.2740 C.2   498  TRP498      0.2290
     77  O         27.2880    6.3300   21.6340 O.2   498  TRP498     -0.2864
     78  CB        24.3970    5.1850   22.6890 C.3   498  TRP498      0.0576
     79  CG        24.5320    6.6580   23.0030 C.ar  498  TRP498      0.0006
     80  CD1       24.9570    7.2190   24.1770 C.ar  498  TRP498      0.0946
     81  CD2       24.2990    7.7460   22.1040 C.ar  498  TRP498      0.0152
     82  NE1       25.0060    8.5880   24.0630 N.ar  498  TRP498     -0.2442
     83  CE2       24.6080    8.9380   22.8000 C.ar  498  TRP498      0.0810
     84  CE3       23.8640    7.8300   20.7760 C.ar  498  TRP498      0.0012
     85  CZ2       24.4950   10.2010   22.2080 C.ar  498  TRP498      0.0191
     86  CZ3       23.7510    9.0780   20.1910 C.ar  498  TRP498      0.0001
     87  CH2       24.0650   10.2520   20.9060 C.ar  498  TRP498      0.0015
     88  N         28.7720    5.9710   18.6500 N.3   502  HIS502     -0.1241
     89  CA        28.1480    7.2630   18.3620 C.3   502  HIS502      0.1621
     90  C         28.7330    8.4680   19.1130 C.2   502  HIS502      0.2264
     91  O         29.3140    9.3680   18.5040 O.2   502  HIS502     -0.2867
     92  CB        26.6440    7.1750   18.6340 C.3   502  HIS502      0.0745
     93  CG        25.8940    6.3840   17.6100 C.ar  502  HIS502      0.0817
     94  ND1       25.2250    6.9450   16.5450 N.ar  502  HIS502     -0.2268
     95  CD2       25.6980    5.0460   17.5010 C.ar  502  HIS502      0.1154
     96  CE1       24.6560    5.9530   15.8450 C.ar  502  HIS502      0.1986
     97  NE2       24.9080    4.7710   16.3750 N.ar  502  HIS502     -0.2212
     98  N         22.9560   11.5970   12.3210 N.3   536  ILE536     -0.1245
     99  CA        22.2400   10.6100   13.1010 C.3   536  ILE536      0.1561
    100  C         22.2960   10.9300   14.6020 C.2   536  ILE536      0.2260
    101  O         21.3270   10.7040   15.3310 O.2   536  ILE536     -0.2867
    102  CB        22.7700    9.1850   12.7890 C.3   536  ILE536      0.0252
    103  CG1       21.6920    8.1660   13.1550 C.3   536  ILE536      0.0019
    104  CG2       24.1190    8.9500   13.4480 C.3   536  ILE536      0.0019
    105  CD1       22.0320    7.2880   14.3200 C.3   536  ILE536      0.0001
    106  N         19.6790   13.3520   15.5040 N.3   539  LEU539     -0.1231
    107  CA        18.3550   12.7710   15.6160 C.3   539  LEU539      0.1693
    108  C         18.2730   12.0540   16.9610 C.2   539  LEU539      0.2591
    109  O         17.2180   12.0070   17.5800 O.2   539  LEU539     -0.2718
    110  CB        18.1000   11.7840   14.4780 C.3   539  LEU539      0.0284
    111  CG        16.9770   10.7700   14.7420 C.3   539  LEU539      0.0019
    112  CD1       15.9660   10.8070   13.6200 C.3   539  LEU539      0.0001
    113  CD2       17.5580    9.3820   14.8580 C.3   539  LEU539      0.0001
    114  N         19.3990   11.5140   17.4160 N.am  540  ALA540     -0.1980
    115  CA        19.4540   10.7980   18.6900 C.3   540  ALA540      0.1597
    116  C         19.0930   11.7220   19.8410 C.2   540  ALA540      0.2287
    117  O         18.2730   11.3860   20.6930 O.2   540  ALA540     -0.2864
    118  CB        20.8430   10.2170   18.9100 C.3   540  ALA540      0.0319
    119  N         15.8530    9.8790   20.3860 N.3   544  LEU544     -0.1231
    120  CA        16.3140    8.6050   20.9200 C.3   544  LEU544      0.1693
    121  C         16.6660    8.5530   22.3970 C.2   544  LEU544      0.2591
    122  O         16.0640    7.8100   23.1590 O.2   544  LEU544     -0.2718
    123  CB        17.5190    8.1050   20.1130 C.3   544  LEU544      0.0284
    124  CG        17.2900    7.3370   18.8040 C.3   544  LEU544      0.0019
    125  CD1       15.8130    7.0950   18.5240 C.3   544  LEU544      0.0001
    126  CD2       17.8800    8.1440   17.6860 C.3   544  LEU544      0.0001
    127  N         17.6530    9.3500   22.7770 N.am  545  VAL545     -0.1980
    128  CA        18.1750    9.3990   24.1360 C.3   545  VAL545      0.1595
    129  C         17.7270   10.6620   24.9170 C.2   545  VAL545      0.2287
    130  O         18.3710   11.0780   25.8860 O.2   545  VAL545     -0.2864
    131  CB        19.7370    9.2930   24.0490 C.3   545  VAL545      0.0276
    132  CG1       20.3470   10.6380   23.6560 C.3   545  VAL545      0.0022
    133  CG2       20.3130    8.7940   25.3420 C.3   545  VAL545      0.0022
    134  N         14.4930    5.3510   24.1230 N.3   551  ILE551     -0.1245
    135  CA        15.4090    4.5960   24.9650 C.3   551  ILE551      0.1561
    136  C         15.0330    4.6730   26.4480 C.2   551  ILE551      0.2260
    137  O         15.1330    3.6910   27.1760 O.2   551  ILE551     -0.2867
    138  CB        16.8550    5.0900   24.7590 C.3   551  ILE551      0.0252
    139  CG1       17.5930    4.1380   23.8170 C.3   551  ILE551      0.0019
    140  CG2       17.6020    5.1400   26.0850 C.3   551  ILE551      0.0019
    141  CD1       17.2130    4.2700   22.3740 C.3   551  ILE551      0.0001
    142  N         14.0600    0.8510   27.6420 N.3   555  PHE555     -0.1241
    143  CA        15.0880    0.1060   28.3370 C.3   555  PHE555      0.1605
    144  C         15.0690    0.1190   29.8580 C.2   555  PHE555      0.2264
    145  O         14.4760    0.9860   30.4760 O.2   555  PHE555     -0.2867
    146  CB        16.4500    0.5420   27.8040 C.3   555  PHE555      0.0534
    147  CG        16.7050    0.0660   26.4110 C.ar  555  PHE555     -0.0203
    148  CD1       17.4850   -1.0660   26.1830 C.ar  555  PHE555     -0.0042
    149  CD2       16.0750    0.6750   25.3390 C.ar  555  PHE555     -0.0042
    150  CE1       17.6200   -1.5900   24.9100 C.ar  555  PHE555     -0.0003
    151  CE2       16.2010    0.1570   24.0590 C.ar  555  PHE555     -0.0003
    152  CZ        16.9750   -0.9820   23.8490 C.ar  555  PHE555     -0.0000
    153  N         21.2170   -6.3360   15.7990 N.3   695  GLN695     -0.1245
    154  CA        20.1550   -5.9940   16.7350 C.3   695  GLN695      0.1566
    155  C         18.8320   -6.6750   16.4420 C.2   695  GLN695      0.2260
    156  O         18.2930   -7.3470   17.3080 O.2   695  GLN695     -0.2867
    157  CB        19.9690   -4.4750   16.7880 C.3   695  GLN695      0.0367
    158  CG        21.1120   -3.7610   17.5020 C.3   695  GLN695      0.0905
    159  CD        20.8720   -2.2700   17.6560 C.2   695  GLN695      0.2608
    160  OE1       20.2770   -1.8390   18.6270 O.2   695  GLN695     -0.2717
    161  NE2       21.3320   -1.4790   16.6920 N.am  695  GLN695     -0.0878
    162  N         17.7680   -9.6460   18.3270 N.3   699  GLY699     -0.1225
    163  CA        16.7640   -9.0380   19.1860 C.3   699  GLY699      0.1811
    164  C         15.4110   -8.7260   18.5720 C.2   699  GLY699      0.2280
    165  O         14.5600   -8.1560   19.2470 O.2   699  GLY699     -0.2866
    166  N         15.9130  -11.3360   23.4780 N.3   705  ARG705     -0.1245
    167  CA        16.5900  -10.1230   23.9350 C.3   705  ARG705      0.1563
    168  C         15.6150   -9.1510   24.6170 C.2   705  ARG705      0.2260
    169  O         15.2610   -8.1310   24.0340 O.2   705  ARG705     -0.2867
    170  CB        17.2490   -9.4040   22.7480 C.3   705  ARG705      0.0307
    171  CG        18.5960   -9.9760   22.3220 C.3   705  ARG705      0.0489
    172  CD        19.7270   -9.2220   23.0280 C.3   705  ARG705      0.2205
    173  NE        20.6360  -10.1340   23.6810 N.pl3 705  ARG705     -0.0865
    174  CZ        21.7090   -9.7700   24.3690 C.cat 705  ARG705      0.5346
    175  NH1       22.4590  -10.7140   24.9130 N.pl3 705  ARG705      0.1354
    176  NH2       22.0360   -8.4900   24.4890 N.pl3 705  ARG705      0.1354
    177  N         14.1130   -6.1750   26.9340 N.3   707  THR707     -0.1218
    178  CA        14.6680   -4.8510   27.2050 C.3   707  THR707      0.1862
    179  C         14.5130   -4.3570   28.6490 C.2   707  THR707      0.2287
    180  O         15.3960   -3.6660   29.1510 O.2   707  THR707     -0.2866
    181  CB        14.0890   -3.8110   26.2340 C.3   707  THR707      0.1770
    182  OG1       12.6660   -3.7660   26.3600 O.3   707  THR707     -0.2211
    183  CG2       14.4410   -4.1850   24.7950 C.3   707  THR707      0.0375
    184  N         10.2790   -0.9800   20.3320 N.3   745  ASP745     -0.1239
    185  CA        11.6290   -1.5150   20.2220 C.3   745  ASP745      0.1674
    186  C         11.8720   -2.2100   18.8840 C.2   745  ASP745      0.2266
    187  O         12.9120   -2.0220   18.2590 O.2   745  ASP745     -0.2867
    188  CB        11.8750   -2.4960   21.3730 C.3   745  ASP745      0.1410
    189  CG        13.2430   -3.1430   21.3170 C.2   745  ASP745      0.3668
    190  OD1       14.2450   -2.4250   21.4530 O.co2 745  ASP745     -0.2456
    191  OD2       13.3160   -4.3710   21.1470 O.co2 745  ASP745     -0.2456
    192  N         12.0500    0.3750   15.9500 N.3   748  VAL748     -0.1231
    193  CA        13.3010    1.1060   15.9160 C.3   748  VAL748      0.1692
    194  C         14.5240    0.2620   15.5330 C.2   748  VAL748      0.2591
    195  O         15.2970    0.6560   14.6550 O.2   748  VAL748     -0.2718
    196  CB        13.5310    1.8180   17.2790 C.3   748  VAL748      0.0266
    197  CG1       15.0090    2.0850   17.5110 C.3   748  VAL748      0.0020
    198  CG2       12.7410    3.1230   17.3080 C.3   748  VAL748      0.0020
    199  N         14.7110   -0.8950   16.1630 N.am  749  ILE749     -0.1980
    200  CA        15.8740   -1.7160   15.8260 C.3   749  ILE749      0.1595
    201  C         15.8080   -2.3990   14.4600 C.2   749  ILE749      0.2287
    202  O         16.7830   -3.0130   14.0270 O.2   749  ILE749     -0.2864
    203  CB        16.1620   -2.7710   16.9050 C.3   749  ILE749      0.0276
    204  CG1       14.9890   -3.7450   17.0290 C.3   749  ILE749      0.0022
    205  CG2       16.4860   -2.0720   18.2150 C.3   749  ILE749      0.0022
    206  CD1       15.3900   -5.1190   17.5650 C.3   749  ILE749      0.0001
    207  N         15.0550   -0.6110   11.7880 N.3   751  ILE751     -0.1231
    208  CA        15.5700    0.4610   10.9430 C.3   751  ILE751      0.1692
    209  C         17.0750    0.5420   11.1880 C.2   751  ILE751      0.2591
    210  O         17.8750    0.5730   10.2480 O.2   751  ILE751     -0.2718
    211  CB        14.9010    1.8210   11.3070 C.3   751  ILE751      0.0266
    212  CG1       13.4460    1.8190   10.8380 C.3   751  ILE751      0.0019
    213  CG2       15.6440    2.9780   10.6610 C.3   751  ILE751      0.0020
    214  CD1       12.7320    3.1390   11.0110 C.3   751  ILE751      0.0001
    215  N         17.4370    0.5510   12.4680 N.am  752  LEU752     -0.1980
    216  CA        18.8180    0.6140   12.9200 C.3   752  LEU752      0.1596
    217  C         19.6860   -0.5160   12.3600 C.2   752  LEU752      0.2287
    218  O         20.8910   -0.3360   12.1650 O.2   752  LEU752     -0.2864
    219  CB        18.8570    0.5570   14.4510 C.3   752  LEU752      0.0297
    220  CG        18.8160    1.8670   15.2340 C.3   752  LEU752      0.0022
    221  CD1       17.4970    2.5530   15.0420 C.3   752  LEU752      0.0001
    222  CD2       19.0410    1.5790   16.6870 C.3   752  LEU752      0.0001
    223  N         24.0420    5.1440   11.2370 N.3   836  ILE836     -0.1245
    224  CA        22.7090    4.8620   11.7440 C.3   836  ILE836      0.1561
    225  C         22.7450    4.1630   13.0970 C.2   836  ILE836      0.2260
    226  O         21.6570    3.9760   13.6620 O.2   836  ILE836     -0.2867
    227  CB        21.9220    3.9830   10.7360 C.3   836  ILE836      0.0252
    228  CG1       20.4710    3.8460   11.1820 C.3   836  ILE836      0.0019
    229  CG2       22.5720    2.5970   10.6260 C.3   836  ILE836      0.0019
    230  CD1       19.5220    3.6760   10.0570 C.3   836  ILE836      0.0001
@<TRIPOS>BOND
     1     1     2    1
     2     8     6    1
     3     6     7    1
     4     6     5    1
     5     2     5    1
     6     2     3    1
     7     3     9   am
     8     3     4    2
     9    14    13    1
    10     9    10    1
    11    11    10    1
    12    11    12    2
    13    10    13    1
    14    13    15    1
    15   230   228    1
    16   210   209    2
    17   229   227    1
    18   213   211    1
    19   227   228    1
    20   227   224    1
    21   212   214    1
    22   212   211    1
    23   208   209    1
    24   208   211    1
    25   208   207    1
    26   209   215   am
    27   223   224    1
    28    16    17    1
    29   224   225    1
    30   218   217    2
    31    98    99    1
    32   217   216    1
    33   215   216    1
    34    17    20    1
    35    17    18    1
    36   102    99    1
    37   102   103    1
    38   102   104    1
    39   216   219    1
    40   225   226    2
    41    99   100    1
    42   103   105    1
    43    20    21    1
    44    18    19    2
    45   112   111    1
    46    23    21    1
    47   202   201    2
    48    21    22    1
    49   219   220    1
    50   201   200    1
    51   110   111    1
    52   110   107    1
    53   100   101    2
    54   195   194    2
    55   111   113    1
    56   221   220    1
    57   220   222    1
    58   106   107    1
    59   194   193    1
    60   194   199   am
    61   107   108    1
    62   153   154    1
    63   200   199    1
    64   200   203    1
    65    96    97   ar
    66    96    94   ar
    67   193   192    1
    68   193   196    1
    69    97    95   ar
    70   155   154    1
    71   155   156    2
    72    94    93   ar
    73   161   159   am
    74   154   157    1
    75   157   158    1
    76   203   204    1
    77   203   205    1
    78   108   114   am
    79   108   109    2
    80   204   206    1
    81   196   198    1
    82   196   197    1
    83   114   115    1
    84    95    93   ar
    85   158   159    1
    86    73    72   ar
    87    73    71   ar
    88    93    92    1
    89   159   160    2
    90   126   124    1
    91    72    70   ar
    92   187   186    2
    93    71    69   ar
    94   162   163    1
    95    89    92    1
    96    89    88    1
    97    89    90    1
    98    91    90    2
    99   125   124    1
   100   164   163    1
   101   164   165    2
   102   115   118    1
   103   115   116    1
   104   124   123    1
   105   186   185    1
   106    30    28    1
   107    70    69   ar
   108    69    68    1
   109    25    24    1
   110    25    28    1
   111    25    26    1
   112    28    29    1
   113   116   117    2
   114    27    26    2
   115   123   120    1
   116    86    84   ar
   117    86    87   ar
   118   185   184    1
   119   185   188    1
   120   119   120    1
   121    67    66    2
   122    68    65    1
   123    46    45   ar
   124    46    44   ar
   125    84    81   ar
   126    45    43   ar
   127    87    85   ar
   128   120   121    1
   129    65    66    1
   130    65    64    1
   131    66    74   am
   132   191   189   ar
   133   189   188    1
   134   189   190   ar
   135    77    76    2
   136    74    75    1
   137    75    76    1
   138    75    78    1
   139    44    42   ar
   140    81    83   ar
   141    81    79   ar
   142    43    42   ar
   143    85    83   ar
   144   171   170    1
   145   171   172    1
   146   141   139    1
   147   121   127   am
   148   121   122    2
   149    78    79    1
   150   170   167    1
   151   127   128    1
   152    83    82   ar
   153    42    41    1
   154    79    80   ar
   155   172   173    1
   156    50    49    2
   157   166   167    1
   158   132   131    1
   159   173   174    2
   160   139   138    1
   161   152   151   ar
   162   152   150   ar
   163    40    39    2
   164    48    51    1
   165    48    49    1
   166    48    47    1
   167   167   168    1
   168   169   168    2
   169   131   128    1
   170   131   133    1
   171   151   149   ar
   172    82    80   ar
   173   134   135    1
   174   128   129    1
   175    51    52    1
   176    49    56   am
   177    41    38    1
   178   174   176    1
   179   174   175    1
   180    39    47   am
   181    39    38    1
   182   138   135    1
   183   138   140    1
   184   183   181    1
   185   150   148   ar
   186   129   130    2
   187   135   136    1
   188    38    37    1
   189    54    53    2
   190   149   147   ar
   191    56    57    1
   192    52    53    1
   193    36    35    1
   194    59    58    2
   195    34    33    2
   196    53    55   am
   197    58    57    1
   198    57    60    1
   199   148   147   ar
   200   181   182    1
   201   181   178    1
   202   147   146    1
   203   136   137    2
   204    32    35    1
   205    32    33    1
   206    32    31    1
   207   177   178    1
   208    62    61    1
   209   178   179    1
   210    63    61    1
   211    60    61    1
   212   142   143    1
   213   146   143    1
   214   143   144    1
   215   179   180    2
   216   144   145    2
