@<TRIPOS>MOLECULE
tmp/1ik4B00.pdb
 113 108 0 0 0
SMALL
GASTEIGER

@<TRIPOS>ATOM
      1  N        100.1380  -38.0050   73.9560 N.3    17  VAL17      -0.1231
      2  CA       100.4480  -38.1230   72.5360 C.3    17  VAL17       0.1692
      3  C        101.4280  -37.0440   72.1070 C.2    17  VAL17       0.2592
      4  O        101.2780  -35.8880   72.4850 O.2    17  VAL17      -0.2718
      5  CB        99.1910  -37.9610   71.6810 C.3    17  VAL17       0.0266
      6  CG1       99.4910  -38.3510   70.2460 C.3    17  VAL17       0.0020
      7  CG2       98.0700  -38.7890   72.2540 C.3    17  VAL17       0.0020
      8  N        102.4250  -37.4200   71.3120 N.am   18  ALA18      -0.1966
      9  CA       103.4140  -36.4630   70.8320 C.3    18  ALA18       0.1728
     10  C        103.9310  -36.8230   69.4420 C.2    18  ALA18       0.2616
     11  O        104.1690  -37.9960   69.1370 O.2    18  ALA18      -0.2715
     12  CB       104.5790  -36.3890   71.8000 C.3    18  ALA18       0.0334
     13  N        104.0960  -35.8150   68.5940 N.am   19  HIS19      -0.1959
     14  CA       104.6290  -36.0590   67.2670 C.3    19  HIS19       0.1787
     15  C        106.1270  -36.1860   67.4460 C.2    19  HIS19       0.2620
     16  O        106.6840  -35.6950   68.4250 O.2    19  HIS19      -0.2715
     17  CB       104.2720  -34.9160   66.3230 C.3    19  HIS19       0.0785
     18  CG       102.8610  -34.9850   65.8360 C.ar   19  HIS19       0.0821
     19  ND1      102.1710  -33.8860   65.3790 N.ar   19  HIS19      -0.2267
     20  CD2      102.0000  -36.0270   65.7670 C.ar   19  HIS19       0.1154
     21  CE1      100.9420  -34.2470   65.0500 C.ar   19  HIS19       0.1986
     22  NE2      100.8130  -35.5420   65.2760 N.ar   19  HIS19      -0.2212
     23  N        106.7800  -36.8440   66.5030 N.am   20  ASP20      -0.1971
     24  CA       108.2070  -37.0870   66.6030 C.3    20  ASP20       0.1709
     25  C        109.1190  -35.9490   67.0790 C.2    20  ASP20       0.2293
     26  O        109.9290  -36.1470   67.9850 O.2    20  ASP20      -0.2864
     27  CB       108.7110  -37.6580   65.2780 C.3    20  ASP20       0.1436
     28  CG       108.2200  -39.0790   65.0380 C.2    20  ASP20       0.3671
     29  OD1      107.6680  -39.6870   65.9860 O.co2  20  ASP20      -0.2456
     30  OD2      108.3820  -39.5910   63.9050 O.co2  20  ASP20      -0.2456
     31  N        108.5530  -35.3160   70.8340 N.3    23  LYS23      -0.1245
     32  CA       108.6710  -36.4120   71.7820 C.3    23  LYS23       0.1561
     33  C        109.6230  -36.1320   72.9350 C.2    23  LYS23       0.2260
     34  O        109.3190  -36.4630   74.0800 O.2    23  LYS23      -0.2867
     35  CB       109.0690  -37.6980   71.0520 C.3    23  LYS23       0.0271
     36  CG       107.8680  -38.5070   70.5790 C.3    23  LYS23       0.0035
     37  CD       108.2720  -39.6590   69.6680 C.3    23  LYS23       0.0206
     38  CE       107.0640  -40.5000   69.2560 C.3    23  LYS23       0.1093
     39  NZ       106.1300  -39.7810   68.3350 N.3    23  LYS23      -0.1314
     40  N         99.5870  -43.1890   72.4430 N.3    45  THR45      -0.1218
     41  CA        99.6000  -43.7790   71.1190 C.3    45  THR45       0.1862
     42  C        100.8330  -44.6760   71.1220 C.2    45  THR45       0.2287
     43  O        101.7190  -44.5170   71.9610 O.2    45  THR45      -0.2866
     44  CB        99.7160  -42.7060   70.0270 C.3    45  THR45       0.1770
     45  OG1      100.4940  -41.6120   70.5180 O.3    45  THR45      -0.2211
     46  CG2       98.3340  -42.1870   69.6490 C.3    45  THR45       0.0375
     47  N        104.0330  -45.3890   69.5850 N.3    47  THR47      -0.1203
     48  CA       105.4210  -45.0330   69.8180 C.3    47  THR47       0.1994
     49  C        105.6160  -44.2080   71.0780 C.2    47  THR47       0.2618
     50  O        106.4980  -44.4960   71.8760 O.2    47  THR47      -0.2717
     51  CB       105.9900  -44.2810   68.6280 C.3    47  THR47       0.1784
     52  OG1      105.4280  -44.8200   67.4250 O.3    47  THR47      -0.2211
     53  CG2      107.4900  -44.4300   68.5890 C.3    47  THR47       0.0376
     54  N        104.7960  -43.1820   71.2590 N.am   48  THR48      -0.1952
     55  CA       104.9080  -42.3460   72.4460 C.3    48  THR48       0.1897
     56  C        104.8090  -43.2080   73.7060 C.2    48  THR48       0.2313
     57  O        105.6880  -43.1590   74.5700 O.2    48  THR48      -0.2863
     58  CB       103.8000  -41.2880   72.4850 C.3    48  THR48       0.1794
     59  OG1      103.9610  -40.3850   71.3810 O.3    48  THR48      -0.2208
     60  CG2      103.8640  -40.5050   73.7830 C.3    48  THR48       0.0378
     61  N         99.9690  -46.7560   66.7540 N.3    65  SER65      -0.1202
     62  CA       100.7150  -45.5690   66.3790 C.3    65  SER65       0.2020
     63  C         99.6780  -44.5770   65.8520 C.2    65  SER65       0.2619
     64  O         98.6410  -44.9790   65.3240 O.2    65  SER65      -0.2717
     65  CB       101.7020  -45.9210   65.2630 C.3    65  SER65       0.2103
     66  OG       102.6600  -44.8980   65.0810 O.3    65  SER65      -0.2182
     67  N         99.9480  -43.2860   65.9970 N.am   66  GLY66      -0.1942
     68  CA        99.0080  -42.2890   65.5170 C.3    66  GLY66       0.1998
     69  C         98.6020  -42.4840   64.0660 C.2    66  GLY66       0.2480
     70  O         97.4140  -42.5580   63.7580 O.2    66  GLY66      -0.2729
     71  N         99.5670  -42.5650   63.1460 N.am   67  PRO67      -0.2726
     72  CA        99.2830  -42.7520   61.7180 C.3    67  PRO67       0.1402
     73  C         98.5190  -44.0310   61.3890 C.2    67  PRO67       0.2269
     74  O         97.8050  -44.0930   60.3890 O.2    67  PRO67      -0.2865
     75  CB       100.6660  -42.7540   61.0640 C.3    67  PRO67       0.0296
     76  CG       101.5850  -42.1480   62.0730 C.3    67  PRO67       0.0237
     77  CD       101.0120  -42.4730   63.4140 C.3    67  PRO67       0.0939
     78  N         95.3190  -42.2520   66.9230 N.3    71  ASP71      -0.1239
     79  CA        94.6280  -41.0140   67.2810 C.3    71  ASP71       0.1674
     80  C         93.1250  -41.2060   67.3390 C.2    71  ASP71       0.2266
     81  O         92.4490  -40.6220   68.1790 O.2    71  ASP71      -0.2867
     82  CB        94.9590  -39.9030   66.2850 C.3    71  ASP71       0.1410
     83  CG        96.3860  -39.4060   66.4200 C.2    71  ASP71       0.3668
     84  OD1       96.8480  -38.7330   65.4810 O.co2  71  ASP71      -0.2456
     85  OD2       97.0440  -39.6820   67.4530 O.co2  71  ASP71      -0.2456
     86  N         98.4510  -33.5280   74.1820 N.3    88  PHE88      -0.1241
     87  CA        98.8140  -33.8050   72.7980 C.3    88  PHE88       0.1605
     88  C         99.7890  -32.7750   72.2420 C.2    88  PHE88       0.2264
     89  O         99.3760  -31.7040   71.7890 O.2    88  PHE88      -0.2867
     90  CB        97.5220  -33.8270   71.9700 C.3    88  PHE88       0.0534
     91  CG        97.6880  -34.3190   70.5560 C.ar   88  PHE88      -0.0203
     92  CD1       96.5930  -34.3250   69.6900 C.ar   88  PHE88      -0.0042
     93  CD2       98.9150  -34.7770   70.0880 C.ar   88  PHE88      -0.0042
     94  CE1       96.7200  -34.7830   68.3760 C.ar   88  PHE88      -0.0003
     95  CE2       99.0560  -35.2380   68.7700 C.ar   88  PHE88      -0.0003
     96  CZ        97.9590  -35.2410   67.9180 C.ar   88  PHE88      -0.0000
     97  N         98.8910  -37.6610   58.5050 N.3    98  HIS98      -0.1241
     98  CA        97.6070  -37.9050   59.1500 C.3    98  HIS98       0.1621
     99  C         97.0550  -36.6620   59.8500 C.2    98  HIS98       0.2264
    100  O         96.4610  -36.7400   60.9340 O.2    98  HIS98      -0.2867
    101  CB        97.7300  -39.0720   60.1410 C.3    98  HIS98       0.0745
    102  CG        98.7930  -38.8800   61.1780 C.ar   98  HIS98       0.0817
    103  ND1      100.1340  -38.7860   60.8650 N.ar   98  HIS98      -0.2268
    104  CD2       98.7140  -38.7670   62.5260 C.ar   98  HIS98       0.1154
    105  CE1      100.8330  -38.6240   61.9740 C.ar   98  HIS98       0.1986
    106  NE2       99.9960  -38.6100   62.9960 N.ar   98  HIS98      -0.2212
    107  N         94.7130  -35.8310   63.3810 N.3   102  VAL102     -0.1245
    108  CA        95.1450  -34.9080   64.4170 C.3   102  VAL102      0.1561
    109  C         94.0470  -33.8870   64.7090 C.2   102  VAL102      0.2260
    110  O         93.6690  -33.6860   65.8640 O.2   102  VAL102     -0.2867
    111  CB        96.4270  -34.1800   63.9820 C.3   102  VAL102      0.0252
    112  CG1       96.7860  -33.0780   64.9760 C.3   102  VAL102      0.0019
    113  CG2       97.5520  -35.1870   63.8520 C.3   102  VAL102      0.0019
@<TRIPOS>BOND
     1    97    98    1
     2    98    99    1
     3    98   101    1
     4    99   100    2
     5   101   102    1
     6    74    73    2
     7   103   102   ar
     8   103   105   ar
     9    75    72    1
    10    75    76    1
    11   102   104   ar
    12    73    72    1
    13    72    71    1
    14   105   106   ar
    15    76    77    1
    16   104   106   ar
    17    71    77    1
    18    71    69   am
    19   107   108    1
    20    70    69    2
    21   113   111    1
    22    30    28   ar
    23   111   108    1
    24   111   112    1
    25    69    68    1
    26   108   109    1
    27   109   110    2
    28    28    27    1
    29    28    29   ar
    30    21    22   ar
    31    21    19   ar
    32    66    65    1
    33    65    62    1
    34    22    20   ar
    35    27    24    1
    36    64    63    2
    37    19    18   ar
    38    84    83   ar
    39    68    67    1
    40    20    18   ar
    41    18    17    1
    42    63    67   am
    43    63    62    1
    44    82    83    1
    45    82    79    1
    46    17    14    1
    47    62    61    1
    48    83    85   ar
    49    23    24    1
    50    23    15   am
    51    24    25    1
    52    78    79    1
    53    25    26    2
    54    14    15    1
    55    14    13    1
    56    79    80    1
    57    80    81    2
    58    52    51    1
    59    15    16    2
    60    96    94   ar
    61    96    95   ar
    62    39    38    1
    63    94    92   ar
    64    53    51    1
    65    13    10   am
    66    51    48    1
    67    95    93   ar
    68    11    10    2
    69    38    37    1
    70    10     9    1
    71    47    48    1
    72    46    44    1
    73    37    36    1
    74    92    91   ar
    75    48    49    1
    76    44    45    1
    77    44    41    1
    78    93    91   ar
    79     6     5    1
    80    91    90    1
    81    36    35    1
    82     9     8    1
    83     9    12    1
    84    31    32    1
    85    35    32    1
    86    49    54   am
    87    49    50    2
    88    41    42    1
    89    41    40    1
    90    42    43    2
    91    54    55    1
    92     8     3   am
    93    59    58    1
    94     5     7    1
    95     5     2    1
    96    32    33    1
    97    89    88    2
    98    90    87    1
    99     3     4    2
   100     3     2    1
   101    88    87    1
   102    55    58    1
   103    55    56    1
   104    58    60    1
   105     2     1    1
   106    87    86    1
   107    33    34    2
   108    56    57    2
