@<TRIPOS>MOLECULE
tmp/1ikfB00.pdb
 151 151 0 0 0
SMALL
GASTEIGER

@<TRIPOS>ATOM
      1  N        -15.0850   48.3650   57.8470 N.3    31  ASP31      -0.1239
      2  CA       -16.0520   47.5360   58.5370 C.3    31  ASP31       0.1674
      3  C        -15.4930   46.1320   58.8010 C.2    31  ASP31       0.2266
      4  O        -16.1830   45.2510   59.3270 O.2    31  ASP31      -0.2867
      5  CB       -17.3280   47.4190   57.6890 C.3    31  ASP31       0.1410
      6  CG       -18.0710   48.6540   57.1580 C.2    31  ASP31       0.3668
      7  OD1      -17.9290   49.7740   57.6640 O.co2  31  ASP31      -0.2456
      8  OD2      -18.8260   48.4620   56.2070 O.co2  31  ASP31      -0.2456
      9  N        -12.4940   43.3100   60.1810 N.3    33  TYR33      -0.1241
     10  CA       -11.3260   43.0630   60.9910 C.3    33  TYR33       0.1605
     11  C        -10.2520   42.5970   59.9900 C.2    33  TYR33       0.2264
     12  O        -10.6190   41.9180   59.0080 O.2    33  TYR33      -0.2867
     13  CB       -11.6250   41.9880   61.9730 C.3    33  TYR33       0.0534
     14  CG       -12.1720   42.4170   63.3230 C.ar   33  TYR33      -0.0201
     15  CD1      -13.3440   43.1620   63.3960 C.ar   33  TYR33      -0.0009
     16  CD2      -11.5040   42.0390   64.4980 C.ar   33  TYR33      -0.0009
     17  CE1      -13.8510   43.5260   64.6350 C.ar   33  TYR33       0.0417
     18  CE2      -12.0030   42.3940   65.7520 C.ar   33  TYR33       0.0417
     19  CZ       -13.1880   43.1350   65.8070 C.ar   33  TYR33       0.1957
     20  OH       -13.7560   43.4700   67.0350 O.3    33  TYR33      -0.2866
     21  N         -6.2510   40.6500   59.2390 N.3    35  TYR35      -0.1241
     22  CA        -5.4400   39.6450   59.9010 C.3    35  TYR35       0.1605
     23  C         -4.1240   39.4070   59.1950 C.2    35  TYR35       0.2264
     24  O         -4.1060   39.5890   57.9750 O.2    35  TYR35      -0.2867
     25  CB        -6.1570   38.3040   59.8980 C.3    35  TYR35       0.0534
     26  CG        -7.4650   38.3190   60.6230 C.ar   35  TYR35      -0.0201
     27  CD1       -8.5760   38.9190   60.0710 C.ar   35  TYR35      -0.0009
     28  CD2       -7.5020   37.8390   61.9250 C.ar   35  TYR35      -0.0009
     29  CE1       -9.7240   39.0670   60.8440 C.ar   35  TYR35       0.0417
     30  CE2       -8.6440   37.9950   62.7000 C.ar   35  TYR35       0.0417
     31  CZ        -9.7420   38.6170   62.1540 C.ar   35  TYR35       0.1957
     32  OH       -10.8190   38.8610   62.9590 O.3    35  TYR35      -0.2866
     33  N         -4.0110   40.2730   64.5110 N.3    50  PHE50      -0.1241
     34  CA        -5.2810   40.7880   63.9950 C.3    50  PHE50       0.1605
     35  C         -5.5260   42.1660   64.5670 C.2    50  PHE50       0.2264
     36  O         -5.0700   42.4080   65.7050 O.2    50  PHE50      -0.2867
     37  CB        -6.4880   39.9410   64.3720 C.3    50  PHE50       0.0534
     38  CG        -7.0490   39.7950   65.7890 C.ar   50  PHE50      -0.0203
     39  CD1       -7.7740   40.8070   66.4210 C.ar   50  PHE50      -0.0042
     40  CD2       -6.9830   38.5660   66.4210 C.ar   50  PHE50      -0.0042
     41  CE1       -8.4240   40.5850   67.6330 C.ar   50  PHE50      -0.0003
     42  CE2       -7.6380   38.3480   67.6310 C.ar   50  PHE50      -0.0003
     43  CZ        -8.3640   39.3510   68.2400 C.ar   50  PHE50      -0.0000
     44  N        -11.4570   46.6350   63.1800 N.3    53  ASN53      -0.1240
     45  CA       -11.7230   47.6250   62.1460 C.3    53  ASN53       0.1653
     46  C        -11.4670   49.0540   62.5930 C.2    53  ASN53       0.2266
     47  O        -10.8540   49.8580   61.8850 O.2    53  ASN53      -0.2867
     48  CB       -13.1610   47.4530   61.6530 C.3    53  ASN53       0.1155
     49  CG       -14.2540   47.6710   62.6750 C.2    53  ASN53       0.2627
     50  OD1      -14.1270   47.1630   63.7850 O.2    53  ASN53      -0.2716
     51  ND2      -15.3230   48.3990   62.3850 N.am   53  ASN53      -0.0877
     52  N         -4.3630   42.1070   68.4330 N.3    59  PHE59      -0.1241
     53  CA        -4.0440   40.9350   69.2570 C.3    59  PHE59       0.1605
     54  C         -2.9050   40.1490   68.5790 C.2    59  PHE59       0.2264
     55  O         -2.8660   40.0830   67.3430 O.2    59  PHE59      -0.2867
     56  CB        -5.3240   40.1120   69.3940 C.3    59  PHE59       0.0534
     57  CG        -5.3080   38.9440   70.3710 C.ar   59  PHE59      -0.0203
     58  CD1       -4.5990   37.7730   70.0760 C.ar   59  PHE59      -0.0042
     59  CD2       -5.9990   39.0380   71.5900 C.ar   59  PHE59      -0.0042
     60  CE1       -4.5680   36.7070   70.9790 C.ar   59  PHE59      -0.0003
     61  CE2       -5.9660   37.9590   72.4890 C.ar   59  PHE59      -0.0003
     62  CZ        -5.2500   36.7980   72.1820 C.ar   59  PHE59      -0.0000
     63  N        -12.0370   39.2040   57.9840 N.3    99  HIS99      -0.1241
     64  CA       -13.0460   38.4120   58.6890 C.3    99  HIS99       0.1621
     65  C        -14.3130   38.3690   57.8770 C.2    99  HIS99       0.2264
     66  O        -14.5580   39.2620   57.0490 O.2    99  HIS99      -0.2867
     67  CB       -13.4510   39.0200   60.0250 C.3    99  HIS99       0.0745
     68  CG       -14.5720   40.0930   60.0180 C.ar   99  HIS99       0.0817
     69  ND1      -14.8920   41.0190   59.1050 N.ar   99  HIS99      -0.2268
     70  CD2      -15.4690   40.2650   61.0410 C.ar   99  HIS99       0.1154
     71  CE1      -15.9060   41.7310   59.5540 C.ar   99  HIS99       0.1986
     72  NE2      -16.2510   41.2570   60.7160 N.ar   99  HIS99      -0.2212
     73  N        -18.5510   37.4690   59.1860 N.3   101  LEU101     -0.1245
     74  CA       -19.4630   36.9330   60.1760 C.3   101  LEU101      0.1561
     75  C        -20.5780   36.2840   59.3760 C.2   101  LEU101      0.2260
     76  O        -21.2620   36.9020   58.5610 O.2   101  LEU101     -0.2867
     77  CB       -19.9000   38.1150   61.0540 C.3   101  LEU101      0.0270
     78  CG       -19.0070   38.3520   62.2960 C.3   101  LEU101      0.0019
     79  CD1      -19.1140   39.7360   62.8850 C.3   101  LEU101      0.0001
     80  CD2      -19.4760   37.4170   63.3630 C.3   101  LEU101      0.0001
     81  N        -25.8800   32.1330   61.0800 N.3   104  THR104     -0.1218
     82  CA       -26.3700   30.8750   61.6160 C.3   104  THR104      0.1862
     83  C        -27.7470   31.3000   62.1450 C.2   104  THR104      0.2287
     84  O        -28.0370   32.4680   62.3900 O.2   104  THR104     -0.2866
     85  CB       -25.4580   30.3980   62.7710 C.3   104  THR104      0.1770
     86  OG1      -24.2050   30.1110   62.1850 O.3   104  THR104     -0.2211
     87  CG2      -26.0070   29.2180   63.5430 C.3   104  THR104      0.0375
     88  N        -29.0090   30.9300   65.0940 N.3   106  TYR106     -0.1227
     89  CA       -28.9130   31.3060   66.4910 C.3   106  TYR106      0.1736
     90  C        -27.6140   32.0110   66.8850 C.2   106  TYR106      0.2596
     91  O        -27.1470   31.9660   68.0390 O.2   106  TYR106     -0.2718
     92  CB       -29.1220   30.0100   67.2940 C.3   106  TYR106      0.0548
     93  CG       -30.4220   29.2280   67.0500 C.ar  106  TYR106     -0.0200
     94  CD1      -31.5880   29.8440   66.5720 C.ar  106  TYR106     -0.0009
     95  CD2      -30.4560   27.8740   67.3650 C.ar  106  TYR106     -0.0009
     96  CE1      -32.7760   29.1210   66.4140 C.ar  106  TYR106      0.0417
     97  CE2      -31.6410   27.1430   67.2090 C.ar  106  TYR106      0.0417
     98  CZ       -32.7960   27.7640   66.7410 C.ar  106  TYR106      0.1957
     99  OH       -33.9650   27.0340   66.6080 O.3   106  TYR106     -0.2866
    100  N        -26.9950   32.7060   65.9420 N.am  107  GLY107     -0.1942
    101  CA       -25.7510   33.3850   66.2190 C.3   107  GLY107      0.2014
    102  C        -25.0320   33.5680   64.9050 C.2   107  GLY107      0.2639
    103  O        -25.4950   33.1250   63.8510 O.2   107  GLY107     -0.2714
    104  N        -23.8700   34.1910   64.9360 N.am  108  ASN108     -0.1958
    105  CA       -23.1280   34.4810   63.7360 C.3   108  ASN108      0.1819
    106  C        -21.8570   33.7470   63.9510 C.2   108  ASN108      0.2621
    107  O        -21.3460   33.6720   65.0770 O.2   108  ASN108     -0.2715
    108  CB       -22.8380   35.9480   63.6070 C.3   108  ASN108      0.1195
    109  CG       -24.0480   36.7130   63.1320 C.2   108  ASN108      0.2630
    110  OD1      -24.5530   36.4470   62.0470 O.2   108  ASN108     -0.2716
    111  ND2      -24.5620   37.6730   63.8890 N.am  108  ASN108     -0.0877
    112  N        -21.3390   33.1680   62.9010 N.am  109  TYR109     -0.1960
    113  CA       -20.1340   32.3800   63.0190 C.3   109  TYR109      0.1756
    114  C        -18.9780   33.1810   62.4590 C.2   109  TYR109      0.2461
    115  O        -18.9950   33.5920   61.2930 O.2   109  TYR109     -0.2730
    116  CB       -20.3370   31.0860   62.2500 C.3   109  TYR109      0.0574
    117  CG       -19.1580   30.1490   62.3650 C.ar  109  TYR109     -0.0198
    118  CD1      -19.0540   29.2970   63.4590 C.ar  109  TYR109     -0.0009
    119  CD2      -18.2160   30.1070   61.3380 C.ar  109  TYR109     -0.0009
    120  CE1      -17.9970   28.3760   63.5300 C.ar  109  TYR109      0.0417
    121  CE2      -17.1610   29.1920   61.4110 C.ar  109  TYR109      0.0417
    122  CZ       -17.0650   28.3290   62.4940 C.ar  109  TYR109      0.1957
    123  OH       -16.0970   27.3610   62.4890 O.3   109  TYR109     -0.2866
    124  N        -17.9520   33.4160   63.2540 N.am  110  PRO110     -0.2716
    125  CA       -16.9080   34.3390   62.9120 C.3   110  PRO110      0.1536
    126  C        -15.8310   33.5750   62.1530 C.2   110  PRO110      0.2598
    127  O        -15.2780   32.5750   62.6340 O.2   110  PRO110     -0.2715
    128  CB       -16.6010   34.8620   64.2820 C.3   110  PRO110      0.0310
    129  CG       -16.7310   33.6890   65.2460 C.3   110  PRO110      0.0237
    130  CD       -17.6900   32.7430   64.5280 C.3   110  PRO110      0.0939
    131  N        -15.6210   33.9060   60.8850 N.am  111  VAL111     -0.1964
    132  CA       -14.5180   33.3020   60.1520 C.3   111  VAL111      0.1727
    133  C        -13.4280   34.3660   60.0910 C.2   111  VAL111      0.2616
    134  O        -13.7000   35.4630   59.6120 O.2   111  VAL111     -0.2715
    135  CB       -15.0140   32.8600   58.7490 C.3   111  VAL111      0.0290
    136  CG1      -13.9260   32.6880   57.7120 C.3   111  VAL111      0.0023
    137  CG2      -15.5320   31.4470   58.9330 C.3   111  VAL111      0.0023
    138  N        -12.2230   34.1390   60.6110 N.am  112  TRP112     -0.1974
    139  CA       -11.1700   35.1270   60.5350 C.3   112  TRP112      0.1640
    140  C        -10.5450   35.0990   59.1530 C.2   112  TRP112      0.2290
    141  O        -10.2280   36.1400   58.6090 O.2   112  TRP112     -0.2864
    142  CB       -10.0510   34.8690   61.5450 C.3   112  TRP112      0.0576
    143  CG       -10.3850   34.8610   63.0470 C.ar  112  TRP112      0.0006
    144  CD1      -11.6870   34.8000   63.4920 C.ar  112  TRP112      0.0946
    145  CD2       -9.4730   34.9170   64.0870 C.ar  112  TRP112      0.0152
    146  NE1      -11.6010   34.8240   64.7910 N.ar  112  TRP112     -0.2442
    147  CE2      -10.3230   34.8940   65.1930 C.ar  112  TRP112      0.0810
    148  CE3       -8.1100   34.9810   64.3070 C.ar  112  TRP112      0.0012
    149  CZ2       -9.8400   34.9390   66.4990 C.ar  112  TRP112      0.0191
    150  CZ3       -7.6110   35.0270   65.6160 C.ar  112  TRP112      0.0001
    151  CH2       -8.4780   35.0090   66.7040 C.ar  112  TRP112      0.0015
@<TRIPOS>BOND
     1     8     6   ar
     2    66    65    2
     3     6     7   ar
     4     6     5    1
     5     5     2    1
     6   136   135    1
     7     1     2    1
     8    65    64    1
     9    24    23    2
    10    63    64    1
    11     2     3    1
    12    76    75    2
    13   141   140    2
    14    64    67    1
    15   135   137    1
    16   135   132    1
    17     3     4    2
    18    12    11    2
    19    69    71   ar
    20    69    68   ar
    21   140   139    1
    22    73    74    1
    23    23    22    1
    24    21    22    1
    25    75    74    1
    26    71    72   ar
    27   134   133    2
    28    25    22    1
    29    25    26    1
    30    11    10    1
    31    68    67    1
    32    68    70   ar
    33    27    26   ar
    34    27    29   ar
    35   133   132    1
    36   133   138   am
    37   132   131    1
    38    74    77    1
    39     9    10    1
    40   139   138    1
    41   139   142    1
    42    26    28   ar
    43    72    70   ar
    44    29    31   ar
    45   131   126   am
    46    10    13    1
    47    77    78    1
    48    81    82    1
    49   115   114    2
    50   119   121   ar
    51   119   117   ar
    52   121   122   ar
    53   142   143    1
    54    82    83    1
    55    82    85    1
    56    48    45    1
    57    48    49    1
    58    47    46    2
    59    28    30   ar
    60    13    14    1
    61   110   109    2
    62    83    84    2
    63    45    46    1
    64    45    44    1
    65   126   127    2
    66   126   125    1
    67    31    30   ar
    68    31    32    1
    69    86    85    1
    70   116   117    1
    71   116   113    1
    72    78    79    1
    73    78    80    1
    74   117   118   ar
    75    51    49   am
    76   114   113    1
    77   114   124   am
    78   123   122    1
    79   122   120   ar
    80    49    50    2
    81    85    87    1
    82   112   113    1
    83   112   106   am
    84   125   124    1
    85   125   128    1
    86   143   144   ar
    87   143   145   ar
    88   109   108    1
    89   109   111   am
    90   124   130    1
    91    14    15   ar
    92    14    16   ar
    93    15    17   ar
    94   118   120   ar
    95   144   146   ar
    96   108   105    1
    97   105   106    1
    98   105   104    1
    99   103   102    2
   100   106   107    2
   101    34    37    1
   102    34    33    1
   103    34    35    1
   104   145   148   ar
   105   145   147   ar
   106   128   129    1
   107   148   150   ar
   108    37    38    1
   109    16    18   ar
   110   130   129    1
   111    35    36    2
   112    17    19   ar
   113   146   147   ar
   114   102   104   am
   115   102   101    1
   116    88    89    1
   117   147   149   ar
   118   150   151   ar
   119    18    19   ar
   120    38    39   ar
   121    38    40   ar
   122    19    20    1
   123   100   101    1
   124   100    90   am
   125    96    94   ar
   126    96    98   ar
   127    39    41   ar
   128    40    42   ar
   129    89    90    1
   130    89    92    1
   131   149   151   ar
   132    94    93   ar
   133    99    98    1
   134    98    97   ar
   135    90    91    2
   136    93    92    1
   137    93    95   ar
   138    97    95   ar
   139    55    54    2
   140    42    43   ar
   141    41    43   ar
   142    52    53    1
   143    54    53    1
   144    53    56    1
   145    56    57    1
   146    58    57   ar
   147    58    60   ar
   148    57    59   ar
   149    60    62   ar
   150    59    61   ar
   151    62    61   ar
