@<TRIPOS>MOLECULE
tmp/1ikiA00.pdb
 97 91 0 0 0
SMALL
GASTEIGER

@<TRIPOS>ATOM
      1  N         15.1700   -9.4730   35.7590 N.3    60  SER60      -0.1217
      2  CA        14.1600   -9.2520   36.7800 C.3    60  SER60       0.1889
      3  C         13.4550   -7.9010   36.7170 C.2    60  SER60       0.2288
      4  O         12.4710   -7.7010   37.4480 O.2    60  SER60      -0.2866
      5  CB        14.8050   -9.2580   38.1540 C.3    60  SER60       0.2089
      6  OG        14.8440  -10.6080   38.5450 O.3    60  SER60      -0.2183
      7  N          9.8180   -8.3100   36.6680 N.3    63  LYS63      -0.1245
      8  CA         8.9420   -8.3260   37.8550 C.3    63  LYS63       0.1561
      9  C          8.1080   -7.0560   37.9630 C.2    63  LYS63       0.2260
     10  O          6.9530   -7.1020   38.4070 O.2    63  LYS63      -0.2867
     11  CB         9.7750   -8.5100   39.1280 C.3    63  LYS63       0.0271
     12  CG        10.4150   -9.9230   39.1160 C.3    63  LYS63       0.0035
     13  CD        11.1930  -10.1630   40.4200 C.3    63  LYS63       0.0206
     14  CE        11.6880  -11.5980   40.5620 C.3    63  LYS63       0.1093
     15  NZ        12.6630  -11.9760   39.4810 N.3    63  LYS63      -0.1314
     16  N         21.3550  -22.9640   39.3850 N.3   118  PHE118     -0.1227
     17  CA        22.5740  -22.2540   38.9610 C.3   118  PHE118      0.1736
     18  C         23.6860  -22.3670   39.9830 C.2   118  PHE118      0.2595
     19  O         24.5410  -21.5180   40.1010 O.2   118  PHE118     -0.2718
     20  CB        22.2390  -20.7830   38.6460 C.3   118  PHE118      0.0547
     21  CG        21.1500  -20.6890   37.5650 C.ar  118  PHE118     -0.0202
     22  CD1       21.2080  -21.3560   36.3600 C.ar  118  PHE118     -0.0042
     23  CD2       20.0230  -19.9050   37.8080 C.ar  118  PHE118     -0.0042
     24  CE1       20.2150  -21.2880   35.3980 C.ar  118  PHE118     -0.0003
     25  CE2       19.0070  -19.7960   36.8530 C.ar  118  PHE118     -0.0003
     26  CZ        19.1000  -20.4920   35.6460 C.ar  118  PHE118     -0.0000
     27  N         23.6670  -23.4510   40.7840 N.am  119  ALA119     -0.1980
     28  CA        24.8070  -23.6610   41.6820 C.3   119  ALA119      0.1597
     29  C         26.1310  -23.6540   40.9580 C.2   119  ALA119      0.2287
     30  O         27.1210  -23.1840   41.5190 O.2   119  ALA119     -0.2864
     31  CB        24.6410  -25.0210   42.3770 C.3   119  ALA119      0.0319
     32  N         27.4850  -22.0740   37.3440 N.3   121  THR121     -0.1218
     33  CA        26.9500  -21.0470   36.4290 C.3   121  THR121      0.1862
     34  C         26.7610  -21.5720   35.0300 C.2   121  THR121      0.2287
     35  O         25.6420  -21.5330   34.4960 O.2   121  THR121     -0.2866
     36  CB        27.9280  -19.8500   36.4240 C.3   121  THR121      0.1770
     37  OG1       27.9040  -19.2900   37.7700 O.3   121  THR121     -0.2211
     38  CG2       27.4570  -18.7780   35.4720 C.3   121  THR121      0.0375
     39  N         14.4180  -12.5380   48.6940 N.3   157  TYR157     -0.1241
     40  CA        14.1440  -12.5070   47.2500 C.3   157  TYR157      0.1605
     41  C         13.9830  -13.8840   46.6770 C.2   157  TYR157      0.2264
     42  O         14.8170  -14.7810   46.9140 O.2   157  TYR157     -0.2867
     43  CB        15.2990  -11.8080   46.5760 C.3   157  TYR157      0.0534
     44  CG        15.0800  -11.5120   45.1140 C.ar  157  TYR157     -0.0201
     45  CD1       14.4360  -10.3360   44.7270 C.ar  157  TYR157     -0.0009
     46  CD2       15.5810  -12.3720   44.1330 C.ar  157  TYR157     -0.0009
     47  CE1       14.2280  -10.0030   43.3970 C.ar  157  TYR157      0.0417
     48  CE2       15.3680  -12.0210   42.8080 C.ar  157  TYR157      0.0417
     49  CZ        14.7020  -10.8690   42.4460 C.ar  157  TYR157      0.1957
     50  OH        14.5310  -10.5300   41.1150 O.3   157  TYR157     -0.2866
     51  N         12.6360  -15.7860   42.8630 N.3   159  ASN159     -0.1240
     52  CA        11.9540  -15.8300   41.5540 C.3   159  ASN159      0.1653
     53  C         10.6220  -16.5460   41.6560 C.2   159  ASN159      0.2266
     54  O          9.7200  -16.2080   40.9010 O.2   159  ASN159     -0.2867
     55  CB        12.8500  -16.5800   40.5770 C.3   159  ASN159      0.1155
     56  CG        13.9320  -15.6210   40.0760 C.2   159  ASN159      0.2627
     57  OD1       13.6190  -14.5850   39.5120 O.2   159  ASN159     -0.2716
     58  ND2       15.1900  -15.9500   40.3120 N.am  159  ASN159     -0.0877
     59  N         32.4770  -19.5840   36.1170 N.3   215  ASP215     -0.1239
     60  CA        32.9400  -19.5440   37.5200 C.3   215  ASP215      0.1674
     61  C         34.4420  -19.5620   37.6460 C.2   215  ASP215      0.2266
     62  O         34.9710  -19.0530   38.6350 O.2   215  ASP215     -0.2867
     63  CB        32.3100  -20.7330   38.2670 C.3   215  ASP215      0.1410
     64  CG        30.8230  -20.4520   38.4860 C.2   215  ASP215      0.3668
     65  OD1       30.3650  -19.3100   38.4430 O.co2 215  ASP215     -0.2456
     66  OD2       30.1160  -21.4770   38.6910 O.co2 215  ASP215     -0.2456
     67  N         12.8690  -20.6880   32.5530 N.3   231  TRP231     -0.1227
     68  CA        13.0890  -20.8550   33.9750 C.3   231  TRP231      0.1737
     69  C         12.6580  -19.6040   34.7240 C.2   231  TRP231      0.2595
     70  O         12.6200  -19.6990   35.9390 O.2   231  TRP231     -0.2718
     71  CB        14.5510  -21.1650   34.2580 C.3   231  TRP231      0.0564
     72  CG        15.4960  -20.1060   33.7520 C.ar  231  TRP231      0.0003
     73  CD1       16.1000  -20.1060   32.5140 C.ar  231  TRP231      0.0946
     74  CD2       15.9310  -18.9370   34.4320 C.ar  231  TRP231      0.0152
     75  NE1       16.8980  -18.9750   32.3970 N.ar  231  TRP231     -0.2442
     76  CE2       16.8140  -18.2400   33.5530 C.ar  231  TRP231      0.0810
     77  CE3       15.6550  -18.3970   35.7120 C.ar  231  TRP231      0.0012
     78  CZ2       17.4170  -17.0490   33.9120 C.ar  231  TRP231      0.0191
     79  CZ3       16.2830  -17.1940   36.0390 C.ar  231  TRP231      0.0001
     80  CH2       17.1560  -16.5200   35.1670 C.ar  231  TRP231      0.0015
     81  N         12.3840  -18.4830   34.0540 N.am  232  ALA232     -0.1980
     82  CA        11.9120  -17.2570   34.7550 C.3   232  ALA232      0.1597
     83  C         10.5450  -16.7590   34.2940 C.2   232  ALA232      0.2287
     84  O          9.7160  -16.3800   35.1280 O.2   232  ALA232     -0.2864
     85  CB        12.9330  -16.1390   34.6280 C.3   232  ALA232      0.0319
     86  N          8.8980  -13.8030   35.8500 N.3   235  ALA235     -0.1245
     87  CA         9.9320  -13.3090   36.7620 C.3   235  ALA235      0.1562
     88  C         11.1380  -12.7060   36.0200 C.2   235  ALA235      0.2260
     89  O         11.9630  -12.0540   36.6710 O.2   235  ALA235     -0.2867
     90  CB        10.4050  -14.4170   37.6910 C.3   235  ALA235      0.0290
     91  N         19.4220   -9.4740   36.0740 N.3   299  THR299     -0.1218
     92  CA        20.6640  -10.2190   35.8380 C.3   299  THR299      0.1862
     93  C         20.6880  -11.5110   35.0300 C.2   299  THR299      0.2287
     94  O         21.3830  -12.4970   35.4240 O.2   299  THR299     -0.2866
     95  CB        21.2500  -10.7690   37.1630 C.3   299  THR299      0.1770
     96  OG1       20.2020  -11.3790   37.9210 O.3   299  THR299     -0.2211
     97  CG2       21.8580   -9.6580   37.9500 C.3   299  THR299      0.0375
@<TRIPOS>BOND
     1    75    73   ar
     2    75    76   ar
     3    73    72   ar
     4    67    68    1
     5    76    78   ar
     6    76    74   ar
     7    72    71    1
     8    72    74   ar
     9    78    80   ar
    10    68    71    1
    11    68    69    1
    12    81    69   am
    13    81    82    1
    14    83    82    1
    15    83    84    2
    16    74    77   ar
    17    35    34    2
    18    85    82    1
    19    69    70    2
    20    34    33    1
    21    93    94    2
    22    93    92    1
    23    80    79   ar
    24    24    26   ar
    25    24    22   ar
    26    38    36    1
    27    26    25   ar
    28    77    79   ar
    29     1     2    1
    30    92    91    1
    31    92    95    1
    32    86    87    1
    33    88    89    2
    34    88    87    1
    35    59    60    1
    36    22    21   ar
    37    36    33    1
    38    36    37    1
    39    33    32    1
    40     7     8    1
    41     3     2    1
    42     3     4    2
    43    87    90    1
    44     2     5    1
    45    25    23   ar
    46    95    96    1
    47    95    97    1
    48    60    61    1
    49    60    63    1
    50    21    23   ar
    51    21    20    1
    52    61    62    2
    53     8     9    1
    54     8    11    1
    55     9    10    2
    56     5     6    1
    57    63    64    1
    58    65    64   ar
    59    64    66   ar
    60    20    17    1
    61    17    16    1
    62    17    18    1
    63    12    11    1
    64    12    13    1
    65    15    14    1
    66    57    56    2
    67    18    19    2
    68    18    27   am
    69    56    58   am
    70    56    55    1
    71    13    14    1
    72    55    52    1
    73    27    28    1
    74    54    53    2
    75    29    30    2
    76    29    28    1
    77    50    49    1
    78    52    53    1
    79    52    51    1
    80    28    31    1
    81    49    48   ar
    82    49    47   ar
    83    48    46   ar
    84    47    45   ar
    85    46    44   ar
    86    45    44   ar
    87    44    43    1
    88    43    40    1
    89    41    42    2
    90    41    40    1
    91    40    39    1
