@<TRIPOS>MOLECULE
tmp/1ikoA00.pdb
 108 104 0 0 0
SMALL
GASTEIGER

@<TRIPOS>ATOM
      1  N         27.4690   34.0250   90.4960 N.3     8  TYR8       -0.1241
      2  CA        27.5070   35.2040   91.3450 C.3     8  TYR8        0.1605
      3  C         26.7650   36.3100   90.6140 C.2     8  TYR8        0.2264
      4  O         27.2140   36.7800   89.5760 O.2     8  TYR8       -0.2867
      5  CB        28.9520   35.5970   91.6090 C.3     8  TYR8        0.0534
      6  CG        29.6000   34.6800   92.6060 C.ar    8  TYR8       -0.0201
      7  CD1       30.1780   33.4660   92.2090 C.ar    8  TYR8       -0.0009
      8  CD2       29.5980   34.9990   93.9580 C.ar    8  TYR8       -0.0009
      9  CE1       30.7400   32.6050   93.1400 C.ar    8  TYR8        0.0417
     10  CE2       30.1570   34.1430   94.8990 C.ar    8  TYR8        0.0417
     11  CZ        30.7260   32.9520   94.4860 C.ar    8  TYR8        0.1957
     12  OH        31.2820   32.1110   95.4360 O.3     8  TYR8       -0.2866
     13  N         26.2850   39.5690   90.1170 N.3    10  ASN10      -0.1240
     14  CA        26.7260   40.9570   90.2990 C.3    10  ASN10       0.1653
     15  C         27.2880   41.5340   89.0020 C.2    10  ASN10       0.2266
     16  O         27.6490   40.7920   88.0850 O.2    10  ASN10      -0.2867
     17  CB        27.7000   41.1090   91.4830 C.3    10  ASN10       0.1155
     18  CG        29.0560   40.5100   91.2380 C.2    10  ASN10       0.2627
     19  OD1       29.7820   40.9030   90.2990 O.2    10  ASN10      -0.2716
     20  ND2       29.4370   39.5760   92.1070 N.am   10  ASN10      -0.0877
     21  N         30.0720   42.7550   88.1790 N.3    12  SER12      -0.1202
     22  CA        31.4590   42.5280   87.7790 C.3    12  SER12       0.2020
     23  C         31.7270   41.0920   87.3040 C.2    12  SER12       0.2618
     24  O         32.8660   40.7440   87.0030 O.2    12  SER12      -0.2717
     25  CB        32.4190   42.8510   88.9240 C.3    12  SER12       0.2103
     26  OG        32.4960   41.7680   89.8340 O.3    12  SER12      -0.2182
     27  N         30.6920   40.2670   87.2090 N.am   13  ASN13      -0.1974
     28  CA        30.8560   38.8600   86.7870 C.3    13  ASN13       0.1688
     29  C         30.8510   38.7470   85.2640 C.2    13  ASN13       0.2292
     30  O         29.8510   39.0400   84.6130 O.2    13  ASN13      -0.2864
     31  CB        29.7180   38.0040   87.3680 C.3    13  ASN13       0.1181
     32  CG        29.8790   36.5230   87.0770 C.2    13  ASN13       0.2629
     33  OD1       30.7350   36.1070   86.3030 O.2    13  ASN13      -0.2716
     34  ND2       29.0220   35.7170   87.6900 N.am   13  ASN13      -0.0877
     35  N         23.9580   36.2480   95.8770 N.3    36  CYS36      -0.1221
     36  CA        23.7830   37.6910   95.9070 C.3    36  CYS36       0.1794
     37  C         25.0990   38.4480   96.1080 C.2    36  CYS36       0.2443
     38  O         26.0470   37.9350   96.6940 O.2    36  CYS36      -0.2733
     39  CB        22.7920   38.0550   97.0300 C.3    36  CYS36       0.0970
     40  SG        21.0540   37.7100   96.7080 S.3    36  CYS36      -0.0800
     41  N         25.1900   39.6830   95.5720 N.am   37  PRO37      -0.2718
     42  CA        26.4240   40.4550   95.7460 C.3    37  PRO37       0.1535
     43  C         26.6630   40.6040   97.2420 C.2    37  PRO37       0.2598
     44  O         25.7250   40.9080   97.9830 O.2    37  PRO37      -0.2715
     45  CB        26.0910   41.8180   95.1270 C.3    37  PRO37       0.0310
     46  CG        25.0330   41.5340   94.1490 C.3    37  PRO37       0.0237
     47  CD        24.1840   40.4450   94.8200 C.3    37  PRO37       0.0939
     48  N         27.8880   40.3930   97.6820 N.am   38  LYS38      -0.1964
     49  CA        28.1860   40.5450   99.0930 C.3    38  LYS38       0.1728
     50  C         29.4820   41.3440   99.2620 C.2    38  LYS38       0.2616
     51  O         30.4930   40.9910   98.6970 O.2    38  LYS38      -0.2715
     52  CB        28.3390   39.1660   99.7470 C.3    38  LYS38       0.0311
     53  CG        28.7470   39.1880  101.2120 C.3    38  LYS38       0.0038
     54  CD        29.2440   37.7990  101.6590 C.3    38  LYS38       0.0206
     55  CE        29.7650   37.8340  103.0860 C.3    38  LYS38       0.1093
     56  NZ        30.2280   36.4900  103.5500 N.3    38  LYS38      -0.1314
     57  N         29.4480   42.4450  100.0030 N.am   39  VAL39      -0.1977
     58  CA        30.6850   43.1860  100.2170 C.3    39  VAL39       0.1596
     59  C         31.0130   43.0790  101.6880 C.2    39  VAL39       0.2287
     60  O         30.1600   43.3150  102.5370 O.2    39  VAL39      -0.2864
     61  CB        30.5860   44.7070   99.8470 C.3    39  VAL39       0.0276
     62  CG1       30.2400   44.8720   98.3750 C.3    39  VAL39       0.0022
     63  CG2       29.5570   45.3930  100.7240 C.3    39  VAL39       0.0022
     64  N         37.1770   42.0060  102.4410 N.3    42  LYS42      -0.1231
     65  CA        38.1560   41.5400  101.4600 C.3    42  LYS42       0.1693
     66  C         37.5510   41.5180  100.0570 C.2    42  LYS42       0.2593
     67  O         38.1900   41.0630   99.1010 O.2    42  LYS42      -0.2718
     68  CB        38.6710   40.1390  101.8100 C.3    42  LYS42       0.0285
     69  CG        39.9560   39.7590  101.0690 C.3    42  LYS42       0.0035
     70  CD        40.4410   38.3490  101.3940 C.3    42  LYS42       0.0206
     71  CE        41.7860   38.0510  100.7270 C.3    42  LYS42       0.1093
     72  NZ        41.7440   38.0950   99.2260 N.3    42  LYS42      -0.1314
     73  N         36.3180   42.0080   99.9410 N.am   43  THR43      -0.1939
     74  CA        35.6190   42.0710   98.6610 C.3    43  THR43       0.2028
     75  C         35.3570   43.5450   98.4530 C.2    43  THR43       0.2642
     76  O         34.6130   44.1660   99.2090 O.2    43  THR43      -0.2714
     77  CB        34.3010   41.3120   98.7230 C.3    43  THR43       0.1808
     78  OG1       33.4270   41.9470   99.6660 O.3    43  THR43      -0.2208
     79  CG2       34.5490   39.8700   99.1460 C.3    43  THR43       0.0379
     80  N         36.0080   44.1160   97.4450 N.am   44  VAL44      -0.1963
     81  CA        35.8740   45.5400   97.1680 C.3    44  VAL44       0.1727
     82  C         34.7090   45.8460   96.2260 C.2    44  VAL44       0.2617
     83  O         34.4910   45.1160   95.2510 O.2    44  VAL44      -0.2715
     84  CB        37.1900   46.0860   96.5700 C.3    44  VAL44       0.0290
     85  CG1       37.1630   47.6130   96.5020 C.3    44  VAL44       0.0023
     86  CG2       38.3740   45.6160   97.4210 C.3    44  VAL44       0.0023
     87  N         33.9550   46.9110   96.5290 N.am   45  GLY45      -0.1940
     88  CA        32.8110   47.3100   95.7110 C.3    45  GLY45       0.2014
     89  C         31.7150   48.0280   96.4910 C.2    45  GLY45       0.2638
     90  O         31.7470   48.0830   97.7170 O.2    45  GLY45      -0.2714
     91  N         30.7350   48.5780   95.7800 N.am   46  GLN46      -0.1977
     92  CA        29.6190   49.2920   96.4180 C.3    46  GLN46       0.1601
     93  C         28.4330   48.3510   96.6340 C.2    46  GLN46       0.2287
     94  O         28.3030   47.3460   95.9470 O.2    46  GLN46      -0.2864
     95  CB        29.1590   50.4540   95.5320 C.3    46  GLN46       0.0394
     96  CG        30.2390   51.5450   95.3130 C.3    46  GLN46       0.0908
     97  CD        30.6950   52.1310   96.6230 C.2    46  GLN46       0.2608
     98  OE1       29.9410   52.8440   97.2840 O.2    46  GLN46      -0.2717
     99  NE2       31.9170   51.8060   97.0240 N.am   46  GLN46      -0.0878
    100  N         25.2440   46.4850   96.1280 N.3    48  GLU48      -0.1245
    101  CA        24.4770   46.2100   94.9310 C.3    48  GLU48       0.1567
    102  C         23.1910   45.5420   95.4090 C.2    48  GLU48       0.2260
    103  O         23.2390   44.5970   96.2040 O.2    48  GLU48      -0.2867
    104  CB        25.2370   45.2400   94.0190 C.3    48  GLU48       0.0388
    105  CG        26.1850   45.8530   93.0010 C.3    48  GLU48       0.1160
    106  CD        26.9120   44.7910   92.1640 C.2    48  GLU48       0.3649
    107  OE1       27.9910   44.3210   92.5980 O.co2  48  GLU48      -0.2457
    108  OE2       26.4080   44.3980   91.0850 O.co2  48  GLU48      -0.2457
@<TRIPOS>BOND
     1    30    29    2
     2    29    28    1
     3    33    32    2
     4    28    27    1
     5    28    31    1
     6    24    23    2
     7    32    31    1
     8    32    34   am
     9    27    23   am
    10    23    22    1
    11    22    21    1
    12    22    25    1
    13    16    15    2
    14    25    26    1
    15    15    14    1
    16     4     3    2
    17    13    14    1
    18    14    17    1
    19    19    18    2
    20     1     2    1
    21     3     2    1
    22   108   106   ar
    23    18    17    1
    24    18    20   am
    25     2     5    1
    26     5     6    1
    27   106   107   ar
    28   106   105    1
    29     7     6   ar
    30     7     9   ar
    31     6     8   ar
    32   105   104    1
    33     9    11   ar
    34     8    10   ar
    35   104   101    1
    36    46    47    1
    37    46    45    1
    38    11    10   ar
    39    11    12    1
    40    47    41    1
    41   101   102    1
    42   101   100    1
    43    45    42    1
    44    83    82    2
    45    96    95    1
    46    96    97    1
    47   102   103    2
    48    95    92    1
    49    41    42    1
    50    41    37   am
    51    88    89    1
    52    88    87    1
    53    42    43    1
    54    91    92    1
    55    91    89   am
    56    35    36    1
    57    36    37    1
    58    36    39    1
    59    94    93    2
    60    37    38    2
    61    82    87   am
    62    82    81    1
    63    92    93    1
    64    89    90    2
    65    85    84    1
    66    84    81    1
    67    84    86    1
    68    97    99   am
    69    97    98    2
    70    40    39    1
    71    81    80    1
    72    43    48   am
    73    43    44    2
    74    80    75   am
    75    48    49    1
    76    62    61    1
    77    75    74    1
    78    75    76    2
    79    74    77    1
    80    74    73    1
    81    51    50    2
    82    77    79    1
    83    77    78    1
    84    49    50    1
    85    49    52    1
    86    67    66    2
    87    72    71    1
    88    50    57   am
    89    52    53    1
    90    61    58    1
    91    61    63    1
    92    73    66   am
    93    57    58    1
    94    66    65    1
    95    58    59    1
    96    71    70    1
    97    69    70    1
    98    69    68    1
    99    53    54    1
   100    65    68    1
   101    65    64    1
   102    54    55    1
   103    59    60    2
   104    55    56    1
