@<TRIPOS>MOLECULE
tmp/1iktA00.pdb
 210 200 0 0 0
SMALL
GASTEIGER

@<TRIPOS>ATOM
      1  N         30.8320   20.2550   10.5170 N.3     6  VAL6       -0.1231
      2  CA        30.2200   21.2120   11.4280 C.3     6  VAL6        0.1692
      3  C         28.9090   21.7860   10.8900 C.2     6  VAL6        0.2592
      4  O         27.9170   21.8410   11.6250 O.2     6  VAL6       -0.2718
      5  CB        31.1970   22.3690   11.7700 C.3     6  VAL6        0.0266
      6  CG1       30.5630   23.3370   12.7220 C.3     6  VAL6        0.0020
      7  CG2       32.4880   21.7960   12.3800 C.3     6  VAL6        0.0020
      8  N         28.8970   22.2000    9.6180 N.am    7  PHE7       -0.1976
      9  CA        27.6890   22.7600    9.0300 C.3     7  PHE7        0.1639
     10  C         26.5850   21.7060    9.0070 C.2     7  PHE7        0.2290
     11  O         25.4260   22.0250    9.2590 O.2     7  PHE7       -0.2864
     12  CB        27.9710   23.2730    7.6120 C.3     7  PHE7        0.0560
     13  CG        28.6480   24.6070    7.6020 C.ar    7  PHE7       -0.0200
     14  CD1       27.9490   25.7390    7.9980 C.ar    7  PHE7       -0.0042
     15  CD2       30.0170   24.7140    7.2990 C.ar    7  PHE7       -0.0042
     16  CE1       28.5820   26.9830    8.1150 C.ar    7  PHE7       -0.0003
     17  CE2       30.6650   25.9510    7.4090 C.ar    7  PHE7       -0.0003
     18  CZ        29.9410   27.0850    7.8200 C.ar    7  PHE7       -0.0000
     19  N         25.1440   21.4240   12.4090 N.3    10  ILE10      -0.1245
     20  CA        24.2710   22.5450   12.7600 C.3    10  ILE10       0.1561
     21  C         22.9110   22.2680   12.1220 C.2    10  ILE10       0.2260
     22  O         21.8780   22.4990   12.7390 O.2    10  ILE10      -0.2867
     23  CB        24.8480   23.9070   12.2490 C.3    10  ILE10       0.0252
     24  CG1       26.1140   24.2560   13.0420 C.3    10  ILE10       0.0019
     25  CG2       23.8250   25.0280   12.4220 C.3    10  ILE10       0.0019
     26  CD1       26.9060   25.4690   12.5130 C.3    10  ILE10       0.0001
     27  N         28.5020   31.8990    4.5150 N.3    31  TRP31      -0.1241
     28  CA        29.8690   31.5360    4.8760 C.3    31  TRP31       0.1605
     29  C         30.7080   31.1510    3.6790 C.2    31  TRP31       0.2264
     30  O         30.3020   30.2910    2.9000 O.2    31  TRP31      -0.2867
     31  CB        29.8420   30.3340    5.8250 C.3    31  TRP31       0.0550
     32  CG        29.0780   30.6080    7.0470 C.ar   31  TRP31       0.0003
     33  CD1       27.7190   30.6280    7.1730 C.ar   31  TRP31       0.0946
     34  CD2       29.6110   30.9740    8.3140 C.ar   31  TRP31       0.0152
     35  NE1       27.3740   30.9900    8.4530 N.ar   31  TRP31      -0.2442
     36  CE2       28.5160   31.2090    9.1710 C.ar   31  TRP31       0.0810
     37  CE3       30.9110   31.1390    8.8130 C.ar   31  TRP31       0.0012
     38  CZ2       28.6760   31.6000   10.5020 C.ar   31  TRP31       0.0191
     39  CZ3       31.0690   31.5320   10.1430 C.ar   31  TRP31       0.0001
     40  CH2       29.9550   31.7590   10.9700 C.ar   31  TRP31       0.0015
     41  N         23.3680   29.7110    6.5930 N.3    45  ILE45      -0.1245
     42  CA        22.6500   29.3230    7.8030 C.3    45  ILE45       0.1561
     43  C         21.5010   30.3270    7.8350 C.2    45  ILE45       0.2260
     44  O         21.6850   31.5030    8.1650 O.2    45  ILE45      -0.2867
     45  CB        23.5070   29.4610    9.0820 C.3    45  ILE45       0.0252
     46  CG1       24.6790   28.4870    9.0170 C.3    45  ILE45       0.0019
     47  CG2       22.6780   29.0930   10.3260 C.3    45  ILE45       0.0019
     48  CD1       25.5790   28.5540   10.2440 C.3    45  ILE45       0.0001
     49  N         30.6070   35.8080    6.2690 N.3    67  ILE67      -0.1245
     50  CA        31.8330   35.5600    6.9980 C.3    67  ILE67       0.1561
     51  C         32.7670   34.7800    6.0830 C.2    67  ILE67       0.2260
     52  O         32.3680   33.7780    5.4870 O.2    67  ILE67      -0.2867
     53  CB        31.5540   34.7390    8.2820 C.3    67  ILE67       0.0252
     54  CG1       30.5530   35.4830    9.1680 C.3    67  ILE67       0.0019
     55  CG2       32.8520   34.4610    9.0100 C.3    67  ILE67       0.0019
     56  CD1       29.0930   35.2390    8.7710 C.3    67  ILE67       0.0001
     57  N         36.5950   32.9510    5.9260 N.3    69  LEU69      -0.1245
     58  CA        37.7360   32.4990    6.6970 C.3    69  LEU69       0.1561
     59  C         38.1630   31.1380    6.1680 C.2    69  LEU69       0.2260
     60  O         37.3790   30.4410    5.4870 O.2    69  LEU69      -0.2867
     61  CB        37.3450   32.3980    8.1870 C.3    69  LEU69       0.0270
     62  CG        36.5220   31.2070    8.6830 C.3    69  LEU69       0.0019
     63  CD1       36.3520   31.3990   10.1950 C.3    69  LEU69       0.0001
     64  CD2       35.1480   31.0940    8.0030 C.3    69  LEU69       0.0001
     65  N         38.2820   28.2420   10.7270 N.3    74  PHE74      -0.1241
     66  CA        36.9170   27.9700   11.1320 C.3    74  PHE74       0.1605
     67  C         36.9530   26.8150   12.1570 C.2    74  PHE74       0.2264
     68  O         36.3210   26.9010   13.2130 O.2    74  PHE74      -0.2867
     69  CB        36.0890   27.5920    9.9070 C.3    74  PHE74       0.0534
     70  CG        34.6770   27.1810   10.2290 C.ar   74  PHE74      -0.0203
     71  CD1       34.3730   25.8560   10.5550 C.ar   74  PHE74      -0.0042
     72  CD2       33.6370   28.1210   10.1800 C.ar   74  PHE74      -0.0042
     73  CE1       33.0140   25.4720   10.8270 C.ar   74  PHE74      -0.0003
     74  CE2       32.3120   27.7540   10.4470 C.ar   74  PHE74      -0.0003
     75  CZ        32.0030   26.4280   10.7670 C.ar   74  PHE74      -0.0000
     76  N         38.1210   27.9750   15.5300 N.3    77  VAL77      -0.1231
     77  CA        37.0720   28.6930   16.2310 C.3    77  VAL77       0.1692
     78  C         36.1130   27.6980   16.8890 C.2    77  VAL77       0.2591
     79  O         35.8010   27.8050   18.0710 O.2    77  VAL77      -0.2718
     80  CB        36.2820   29.6070   15.2580 C.3    77  VAL77       0.0266
     81  CG1       34.9730   30.0860   15.9120 C.3    77  VAL77       0.0020
     82  CG2       37.1500   30.7810   14.8560 C.3    77  VAL77       0.0020
     83  N         35.6650   26.7300   16.1100 N.am   78  VAL78      -0.1980
     84  CA        34.7350   25.7220   16.5850 C.3    78  VAL78       0.1595
     85  C         35.2910   24.9390   17.7650 C.2    78  VAL78       0.2287
     86  O         34.5640   24.6760   18.7190 O.2    78  VAL78      -0.2864
     87  CB        34.3500   24.7730   15.4300 C.3    78  VAL78       0.0276
     88  CG1       33.7070   23.4780   15.9630 C.3    78  VAL78       0.0022
     89  CG2       33.3640   25.5010   14.5290 C.3    78  VAL78       0.0022
     90  N         36.9140   34.1550   17.8380 N.3    84  PRO84      -0.2102
     91  CA        36.4720   34.7960   16.5960 C.3    84  PRO84       0.1504
     92  C         36.6010   36.3120   16.5720 C.2    84  PRO84       0.2575
     93  O         36.8160   36.8900   15.5050 O.2    84  PRO84      -0.2718
     94  CB        35.0360   34.2950   16.4340 C.3    84  PRO84       0.0282
     95  CG        34.5760   34.1380   17.8340 C.3    84  PRO84       0.0208
     96  CD        35.7830   33.5080   18.5330 C.3    84  PRO84       0.0893
     97  N         36.4850   36.9660   17.7300 N.am   85  GLN85      -0.1980
     98  CA        36.6370   38.4140   17.7340 C.3    85  GLN85       0.1601
     99  C         38.1210   38.7270   17.5380 C.2    85  GLN85       0.2287
    100  O         38.4770   39.6600   16.8200 O.2    85  GLN85      -0.2864
    101  CB        36.1300   39.0290   19.0470 C.3    85  GLN85       0.0394
    102  CG        34.6170   39.2040   19.1200 C.3    85  GLN85       0.0908
    103  CD        33.8580   37.8930   19.0520 C.2    85  GLN85       0.2608
    104  OE1       34.0190   37.0170   19.9120 O.2    85  GLN85      -0.2717
    105  NE2       33.0220   37.7460   18.0230 N.am   85  GLN85      -0.0878
    106  N         38.9110   38.3020   13.9660 N.3    88  PHE88      -0.1227
    107  CA        38.3810   39.3900   13.1540 C.3    88  PHE88       0.1736
    108  C         39.3210   40.5790   13.2090 C.2    88  PHE88       0.2595
    109  O         39.6760   41.1460   12.1810 O.2    88  PHE88      -0.2718
    110  CB        37.0060   39.8200   13.6650 C.3    88  PHE88       0.0547
    111  CG        36.4620   41.0440   12.9680 C.ar   88  PHE88      -0.0202
    112  CD1       35.8920   40.9470   11.6950 C.ar   88  PHE88      -0.0042
    113  CD2       36.5460   42.3040   13.5730 C.ar   88  PHE88      -0.0042
    114  CE1       35.4120   42.0760   11.0380 C.ar   88  PHE88      -0.0003
    115  CE2       36.0670   43.4490   12.9160 C.ar   88  PHE88      -0.0003
    116  CZ        35.4970   43.3370   11.6480 C.ar   88  PHE88      -0.0000
    117  N         39.7550   40.9560   14.4020 N.am   89  PHE89      -0.1976
    118  CA        40.6390   42.1130   14.4790 C.3    89  PHE89       0.1639
    119  C         42.0490   41.8580   13.9560 C.2    89  PHE89       0.2290
    120  O         42.7270   42.8030   13.5530 O.2    89  PHE89      -0.2864
    121  CB        40.6310   42.6890   15.9050 C.3    89  PHE89       0.0560
    122  CG        39.3010   43.2950   16.2790 C.ar   89  PHE89      -0.0200
    123  CD1       38.8460   44.4350   15.6260 C.ar   89  PHE89      -0.0042
    124  CD2       38.4660   42.6730   17.1990 C.ar   89  PHE89      -0.0042
    125  CE1       37.5640   44.9510   15.8750 C.ar   89  PHE89      -0.0003
    126  CE2       37.1750   43.1820   17.4570 C.ar   89  PHE89      -0.0003
    127  CZ        36.7360   44.3210   16.7870 C.ar   89  PHE89      -0.0000
    128  N         39.6470   36.5920   10.0900 N.3    93  LEU93      -0.1245
    129  CA        38.2160   36.3650    9.8410 C.3    93  LEU93       0.1561
    130  C         37.6460   37.6450    9.2670 C.2    93  LEU93       0.2260
    131  O         37.7540   38.6970    9.8860 O.2    93  LEU93      -0.2867
    132  CB        37.4960   36.0100   11.1520 C.3    93  LEU93       0.0270
    133  CG        35.9990   35.6170   11.1800 C.3    93  LEU93       0.0019
    134  CD1       35.6970   34.8770   12.5030 C.3    93  LEU93       0.0001
    135  CD2       35.0990   36.8460   11.0490 C.3    93  LEU93       0.0001
    136  N         34.3140   39.8030    7.9170 N.3    95  ALA95      -0.1245
    137  CA        32.8740   39.8010    8.0900 C.3    95  ALA95       0.1562
    138  C         32.3560   40.9930    7.3150 C.2    95  ALA95       0.2260
    139  O         32.8670   42.1130    7.4750 O.2    95  ALA95      -0.2867
    140  CB        32.4930   39.9320    9.5630 C.3    95  ALA95       0.0290
    141  N         27.9970   43.0760   10.6520 N.3    99  ILE99      -0.1231
    142  CA        29.0260   42.3850   11.4250 C.3    99  ILE99       0.1692
    143  C         28.6150   41.9380   12.8300 C.2    99  ILE99       0.2591
    144  O         28.8860   40.7970   13.2300 O.2    99  ILE99      -0.2718
    145  CB        30.2950   43.2720   11.5150 C.3    99  ILE99       0.0266
    146  CG1       30.8660   43.4710   10.1150 C.3    99  ILE99       0.0019
    147  CG2       31.3460   42.6250   12.4150 C.3    99  ILE99       0.0020
    148  CD1       31.9970   44.4900   10.0490 C.3    99  ILE99       0.0001
    149  N         27.9550   42.8150   13.5750 N.am  100  MET100     -0.1979
    150  CA        27.5580   42.4680   14.9310 C.3   100  MET100      0.1605
    151  C         26.5230   41.3470   15.0330 C.2   100  MET100      0.2287
    152  O         26.3700   40.7210   16.0880 O.2   100  MET100     -0.2864
    153  CB        27.0740   43.7170   15.6800 C.3   100  MET100      0.0413
    154  CG        28.2090   44.6810   16.0190 C.3   100  MET100      0.0598
    155  SD        29.6530   43.7980   16.7100 S.3   100  MET100     -0.1393
    156  CE        29.0750   43.4410   18.3450 C.3   100  MET100      0.0692
    157  N         26.6990   38.5200   13.5550 N.3   102  SER102     -0.1202
    158  CA        27.4060   37.2470   13.6570 C.3   102  SER102      0.2020
    159  C         27.8420   36.9480   15.0870 C.2   102  SER102      0.2618
    160  O         28.0110   35.7910   15.4730 O.2   102  SER102     -0.2717
    161  CB        28.6180   37.2440   12.7230 C.3   102  SER102      0.2103
    162  OG        29.4140   38.3980   12.9210 O.3   102  SER102     -0.2182
    163  N         28.0250   38.0060   15.8640 N.am  103  GLN103     -0.1979
    164  CA        28.4310   37.8640   17.2400 C.3   103  GLN103      0.1601
    165  C         27.1810   37.4780   18.0270 C.2   103  GLN103      0.2287
    166  O         27.2590   36.7750   19.0340 O.2   103  GLN103     -0.2864
    167  CB        29.0390   39.1760   17.7270 C.3   103  GLN103      0.0394
    168  CG        29.7650   39.0760   19.0530 C.3   103  GLN103      0.0908
    169  CD        30.8340   40.1440   19.2060 C.2   103  GLN103      0.2608
    170  OE1       30.6470   41.2890   18.8000 O.2   103  GLN103     -0.2717
    171  NE2       31.9550   39.7740   19.8030 N.am  103  GLN103     -0.0878
    172  N         24.7890   35.6030   16.7780 N.3   105  LEU105     -0.1231
    173  CA        24.6450   34.1950   16.4250 C.3   105  LEU105      0.1693
    174  C         25.6150   33.3350   17.2360 C.2   105  LEU105      0.2591
    175  O         25.2960   32.2180   17.6660 O.2   105  LEU105     -0.2718
    176  CB        24.9470   34.0220   14.9320 C.3   105  LEU105      0.0284
    177  CG        25.0600   32.5740   14.4810 C.3   105  LEU105      0.0019
    178  CD1       23.6580   31.9750   14.4540 C.3   105  LEU105      0.0001
    179  CD2       25.7200   32.4980   13.1030 C.3   105  LEU105      0.0001
    180  N         26.8120   33.8730   17.4210 N.am  106  GLN106     -0.1979
    181  CA        27.8680   33.2060   18.1570 C.3   106  GLN106      0.1601
    182  C         27.3780   32.8770   19.5570 C.2   106  GLN106      0.2287
    183  O         27.3980   31.7200   19.9740 O.2   106  GLN106     -0.2864
    184  CB        29.0740   34.1330   18.2290 C.3   106  GLN106      0.0394
    185  CG        30.2670   33.6010   19.0070 C.3   106  GLN106      0.0908
    186  CD        31.3100   34.6800   19.1920 C.2   106  GLN106      0.2608
    187  OE1       31.3670   35.6270   18.4130 O.2   106  GLN106     -0.2717
    188  NE2       32.1450   34.5430   20.2220 N.am  106  GLN106     -0.0878
    189  N         24.2690   30.3890   19.6760 N.3   109  LEU109     -0.1231
    190  CA        24.6230   29.0090   19.3730 C.3   109  LEU109      0.1693
    191  C         25.4650   28.4000   20.5000 C.2   109  LEU109      0.2591
    192  O         25.4260   27.1820   20.7270 O.2   109  LEU109     -0.2718
    193  CB        25.3660   28.9270   18.0350 C.3   109  LEU109      0.0284
    194  CG        24.5080   29.1700   16.7830 C.3   109  LEU109      0.0019
    195  CD1       25.3730   29.0080   15.5410 C.3   109  LEU109      0.0001
    196  CD2       23.3160   28.1910   16.7580 C.3   109  LEU109      0.0001
    197  N         26.2230   29.2500   21.1920 N.am  110  LYS110     -0.1980
    198  CA        27.0450   28.8150   22.3230 C.3   110  LYS110      0.1596
    199  C         26.0980   28.2260   23.3660 C.2   110  LYS110      0.2287
    200  O         26.3490   27.1550   23.9180 O.2   110  LYS110     -0.2864
    201  CB        27.7790   30.0020   22.9470 C.3   110  LYS110      0.0298
    202  CG        28.9470   30.5400   22.1530 C.3   110  LYS110      0.0038
    203  CD        30.2490   29.8420   22.5240 C.3   110  LYS110      0.0206
    204  CE        31.3990   30.8520   22.5520 C.3   110  LYS110      0.1093
    205  NZ        31.4340   31.7070   21.3230 N.3   110  LYS110     -0.1314
    206  N         25.1120   25.0490   22.5280 N.3   113  ALA113     -0.1245
    207  CA        26.2810   24.1750   22.4660 C.3   113  ALA113      0.1562
    208  C         26.5570   23.5850   23.8550 C.2   113  ALA113      0.2260
    209  O         27.6970   23.2640   24.1870 O.2   113  ALA113     -0.2867
    210  CB        27.4980   24.9560   21.9850 C.3   113  ALA113      0.0290
@<TRIPOS>BOND
     1    30    29    2
     2    29    28    1
     3    27    28    1
     4    28    31    1
     5    52    51    2
     6    60    59    2
     7    31    32    1
     8    57    58    1
     9    51    50    1
    10    59    58    1
    11    49    50    1
    12    41    42    1
    13    58    61    1
    14    50    53    1
    15    32    33   ar
    16    32    34   ar
    17    33    35   ar
    18    15    17   ar
    19    15    13   ar
    20   138   139    2
    21   138   137    1
    22    17    18   ar
    23    13    12    1
    24    13    14   ar
    25    12     9    1
    26    42    43    1
    27    42    45    1
    28    18    16   ar
    29    43    44    2
    30   136   137    1
    31    14    16   ar
    32    64    62    1
    33   137   140    1
    34    61    62    1
    35    53    55    1
    36    53    54    1
    37    34    37   ar
    38    34    36   ar
    39    35    36   ar
    40    62    63    1
    41    56    54    1
    42    37    39   ar
    43    10     9    1
    44    10    11    2
    45    46    45    1
    46    46    48    1
    47     9     8    1
    48    45    47    1
    49    36    38   ar
    50   130   129    1
    51   130   131    2
    52     8     3   am
    53   129   128    1
    54   129   132    1
    55    69    70    1
    56    69    66    1
    57   148   146    1
    58   146   145    1
    59    39    40   ar
    60    72    70   ar
    61    72    74   ar
    62    70    71   ar
    63    74    75   ar
    64    38    40   ar
    65     1     2    1
    66    71    73   ar
    67   141   142    1
    68    65    66    1
    69    75    73   ar
    70     3     2    1
    71     3     4    2
    72   114   116   ar
    73   114   112   ar
    74   135   133    1
    75    66    67    1
    76   132   133    1
    77   133   134    1
    78   142   145    1
    79   142   143    1
    80     2     5    1
    81   145   147    1
    82   116   115   ar
    83   112   111   ar
    84     5     7    1
    85     5     6    1
    86    21    22    2
    87    21    20    1
    88    67    68    2
    89   109   108    2
    90    23    25    1
    91    23    20    1
    92    23    24    1
    93    19    20    1
    94    26    24    1
    95   161   162    1
    96   161   158    1
    97   143   144    2
    98   143   149   am
    99   115   113   ar
   100   111   113   ar
   101   111   110    1
   102   179   177    1
   103   107   108    1
   104   107   110    1
   105   107   106    1
   106   108   117   am
   107   120   119    2
   108   157   158    1
   109   149   150    1
   110   158   159    1
   111   119   118    1
   112   117   118    1
   113   178   177    1
   114   118   121    1
   115   177   176    1
   116    89    87    1
   117    82    80    1
   118   150   151    1
   119   150   153    1
   120   176   173    1
   121   151   152    2
   122   159   160    2
   123   159   163   am
   124    80    81    1
   125    80    77    1
   126    87    88    1
   127    87    84    1
   128    93    92    2
   129    76    77    1
   130   195   194    1
   131   123   125   ar
   132   123   122   ar
   133   153   154    1
   134   163   164    1
   135   125   127   ar
   136   121   122    1
   137   154   155    1
   138    83    84    1
   139    83    78   am
   140    77    78    1
   141   122   124   ar
   142   173   172    1
   143   173   174    1
   144    94    91    1
   145    94    95    1
   146    92    91    1
   147    92    97   am
   148    84    85    1
   149    91    90    1
   150   155   156    1
   151   196   194    1
   152   194   193    1
   153   127   126   ar
   154   100    99    2
   155    78    79    2
   156   124   126   ar
   157   174   180   am
   158   174   175    2
   159   164   167    1
   160   164   165    1
   161   180   181    1
   162    99    98    1
   163   167   168    1
   164    97    98    1
   165    98   101    1
   166    85    86    2
   167    95    96    1
   168    90    96    1
   169   105   103   am
   170   165   166    2
   171   193   190    1
   172   181   184    1
   173   181   182    1
   174   184   185    1
   175   187   186    2
   176   170   169    2
   177   185   186    1
   178   101   102    1
   179   103   102    1
   180   103   104    2
   181   168   169    1
   182   186   188   am
   183   169   171   am
   184   190   189    1
   185   190   191    1
   186   182   183    2
   187   191   192    2
   188   191   197   am
   189   197   198    1
   190   205   204    1
   191   210   207    1
   192   202   203    1
   193   202   201    1
   194   198   201    1
   195   198   199    1
   196   207   206    1
   197   207   208    1
   198   203   204    1
   199   199   200    2
   200   208   209    2
