@<TRIPOS>MOLECULE
tmp/1ikvA00.pdb
 151 150 0 0 0
SMALL
GASTEIGER

@<TRIPOS>ATOM
      1  N        -11.7430  134.4460  177.8760 N.3    95  PRO95      -0.2116
      2  CA       -11.0450  134.6640  176.6150 C.3    95  PRO95       0.1372
      3  C         -9.5740  134.6670  176.9190 C.2    95  PRO95       0.2244
      4  O         -9.1540  135.2000  177.9430 O.2    95  PRO95      -0.2868
      5  CB       -11.5270  136.0430  176.1790 C.3    95  PRO95       0.0268
      6  CG       -12.8480  136.1800  176.8470 C.3    95  PRO95       0.0207
      7  CD       -12.5870  135.6040  178.2060 C.3    95  PRO95       0.0892
      8  N         -7.7620  136.8770  170.8820 N.3   100  LEU100     -0.1231
      9  CA        -8.4650  138.1110  170.5650 C.3   100  LEU100      0.1693
     10  C         -7.9380  138.6770  169.2510 C.2   100  LEU100      0.2592
     11  O         -6.7440  138.6270  168.9880 O.2   100  LEU100     -0.2718
     12  CB        -8.2400  139.1310  171.6790 C.3   100  LEU100      0.0284
     13  CG        -8.8100  138.7680  173.0400 C.3   100  LEU100      0.0019
     14  CD1       -8.3340  139.7520  174.0750 C.3   100  LEU100      0.0001
     15  CD2      -10.3190  138.7650  172.9560 C.3   100  LEU100      0.0001
     16  N         -8.8180  139.2120  168.4210 N.am  101  LYS101     -0.1966
     17  CA        -8.3650  139.7920  167.1700 C.3   101  LYS101      0.1728
     18  C         -7.8230  141.1860  167.4590 C.2   101  LYS101      0.2616
     19  O         -8.4510  141.9660  168.1660 O.2   101  LYS101     -0.2715
     20  CB        -9.5070  139.8760  166.1490 C.3   101  LYS101      0.0311
     21  CG        -9.7910  138.5680  165.3700 C.3   101  LYS101      0.0038
     22  CD       -10.9730  137.7590  165.9200 C.3   101  LYS101      0.0206
     23  CE       -10.6840  137.1880  167.3110 C.3   101  LYS101      0.1093
     24  NZ       -11.8090  136.3720  167.8700 N.3   101  LYS101     -0.1314
     25  N         -6.6430  141.4870  166.9300 N.am  102  LYS102     -0.1977
     26  CA        -6.0310  142.8000  167.1200 C.3   102  LYS102      0.1596
     27  C         -7.0090  143.9170  166.7330 C.2   102  LYS102      0.2287
     28  O         -7.5710  143.8920  165.6460 O.2   102  LYS102     -0.2864
     29  CB        -4.7560  142.8850  166.2700 C.3   102  LYS102      0.0298
     30  CG        -4.2000  144.2740  166.0830 C.3   102  LYS102      0.0038
     31  CD        -4.5190  144.7670  164.6960 C.3   102  LYS102      0.0206
     32  CE        -3.6180  144.1220  163.6390 C.3   102  LYS102      0.1093
     33  NZ        -2.2110  144.6590  163.6170 N.3   102  LYS102     -0.1314
     34  N         -9.9830  150.6150  171.3670 N.3   105  VAL105     -0.1245
     35  CA       -10.6360  149.8490  172.4130 C.3   105  VAL105      0.1561
     36  C        -10.8120  150.7570  173.6290 C.2   105  VAL105      0.2260
     37  O         -9.8810  151.4500  174.0380 O.2   105  VAL105     -0.2867
     38  CB        -9.8190  148.5480  172.7660 C.3   105  VAL105      0.0252
     39  CG1       -8.3420  148.8410  172.8100 C.3   105  VAL105      0.0019
     40  CG2      -10.2720  147.9810  174.0950 C.3   105  VAL105      0.0019
     41  N        -16.5890  144.6700  168.0900 N.3   178  VAL178     -0.1245
     42  CA       -16.5300  143.5360  169.0000 C.3   178  VAL178      0.1561
     43  C        -16.8200  144.0420  170.4090 C.2   178  VAL178      0.2260
     44  O        -16.2360  145.0250  170.8690 O.2   178  VAL178     -0.2867
     45  CB       -15.1520  142.7980  168.9260 C.3   178  VAL178      0.0252
     46  CG1      -14.1780  143.5870  168.0920 C.3   178  VAL178      0.0019
     47  CG2      -14.5880  142.5650  170.3070 C.3   178  VAL178      0.0019
     48  N        -17.1010  142.7070  174.3490 N.3   180  TYR180     -0.1241
     49  CA       -16.9640  141.6310  175.3140 C.3   180  TYR180      0.1605
     50  C        -17.4390  142.1320  176.6610 C.2   180  TYR180      0.2264
     51  O        -16.9570  143.1500  177.1570 O.2   180  TYR180     -0.2867
     52  CB       -15.5130  141.1600  175.4210 C.3   180  TYR180      0.0534
     53  CG       -15.3210  140.1100  176.4890 C.ar  180  TYR180     -0.0201
     54  CD1      -15.9260  138.8650  176.3810 C.ar  180  TYR180     -0.0009
     55  CD2      -14.6110  140.3930  177.6510 C.ar  180  TYR180     -0.0009
     56  CE1      -15.8400  137.9330  177.4070 C.ar  180  TYR180      0.0417
     57  CE2      -14.5200  139.4670  178.6860 C.ar  180  TYR180      0.0417
     58  CZ       -15.1410  138.2450  178.5560 C.ar  180  TYR180      0.1957
     59  OH       -15.1070  137.3510  179.5960 O.3   180  TYR180     -0.2866
     60  N        -16.0420  145.6390  177.4670 N.3   187  TYR187     -0.1227
     61  CA       -14.8720  146.0120  176.6710 C.3   187  TYR187      0.1736
     62  C        -15.3400  146.1630  175.2370 C.2   187  TYR187      0.2595
     63  O        -15.8600  145.2110  174.6370 O.2   187  TYR187     -0.2718
     64  CB       -13.7700  144.9570  176.7440 C.3   187  TYR187      0.0548
     65  CG       -13.1060  144.8680  178.0900 C.ar  187  TYR187     -0.0200
     66  CD1      -13.7830  144.3230  179.1750 C.ar  187  TYR187     -0.0009
     67  CD2      -11.8170  145.3620  178.2950 C.ar  187  TYR187     -0.0009
     68  CE1      -13.2040  144.2700  180.4410 C.ar  187  TYR187      0.0417
     69  CE2      -11.2220  145.3140  179.5640 C.ar  187  TYR187      0.0417
     70  CZ       -11.9290  144.7630  180.6370 C.ar  187  TYR187      0.1957
     71  OH       -11.3830  144.6890  181.9060 O.3   187  TYR187     -0.2866
     72  N        -15.1870  147.3700  174.6990 N.am  188  VAL188     -0.1966
     73  CA       -15.6020  147.6320  173.3290 C.3   188  VAL188      0.1727
     74  C        -14.4290  148.0350  172.4540 C.2   188  VAL188      0.2616
     75  O        -13.6590  148.9300  172.7980 O.2   188  VAL188     -0.2715
     76  CB       -16.6980  148.7220  173.2780 C.3   188  VAL188      0.0290
     77  CG1      -16.8130  149.2900  171.8790 C.3   188  VAL188      0.0023
     78  CG2      -18.0300  148.1140  173.6740 C.3   188  VAL188      0.0023
     79  N        -14.2980  147.3600  171.3190 N.am  189  GLY189     -0.1955
     80  CA       -13.2140  147.6690  170.4110 C.3   189  GLY189      0.1869
     81  C        -13.6420  147.6310  168.9610 C.2   189  GLY189      0.2309
     82  O        -14.6720  147.0510  168.6140 O.2   189  GLY189     -0.2863
     83  N         -5.9370  152.1640  176.5320 N.3   224  PRO224     -0.2116
     84  CA        -5.1320  150.9550  176.6950 C.3   224  PRO224      0.1372
     85  C         -3.7270  151.4680  177.0000 C.2   224  PRO224      0.2244
     86  O         -3.3490  152.5320  176.5130 O.2   224  PRO224     -0.2868
     87  CB        -5.2440  150.2950  175.3290 C.3   224  PRO224      0.0268
     88  CG        -6.6240  150.6610  174.9210 C.3   224  PRO224      0.0207
     89  CD        -6.7060  152.1160  175.2780 C.3   224  PRO224      0.0892
     90  N         -4.5000  147.8850  179.5740 N.3   226  PHE226     -0.1241
     91  CA        -5.7210  147.3470  180.1210 C.3   226  PHE226      0.1605
     92  C         -5.2950  146.2460  181.0490 C.2   226  PHE226      0.2264
     93  O         -4.9030  145.1710  180.5990 O.2   226  PHE226     -0.2867
     94  CB        -6.5610  146.7450  179.0050 C.3   226  PHE226      0.0534
     95  CG        -7.7670  147.5430  178.6520 C.ar  226  PHE226     -0.0203
     96  CD1       -8.8510  147.6030  179.5190 C.ar  226  PHE226     -0.0042
     97  CD2       -7.8430  148.2010  177.4320 C.ar  226  PHE226     -0.0042
     98  CE1      -10.0000  148.3050  179.1760 C.ar  226  PHE226     -0.0003
     99  CE2       -8.9870  148.9070  177.0770 C.ar  226  PHE226     -0.0003
    100  CZ       -10.0710  148.9580  177.9520 C.ar  226  PHE226     -0.0000
    101  N         -6.2040  143.4430  182.8680 N.3   228  TRP228     -0.1241
    102  CA        -7.3420  142.5420  182.9680 C.3   228  TRP228      0.1605
    103  C         -6.9260  141.1150  183.2860 C.2   228  TRP228      0.2264
    104  O         -5.9450  140.5960  182.7440 O.2   228  TRP228     -0.2867
    105  CB        -8.1230  142.5520  181.6670 C.3   228  TRP228      0.0550
    106  CG        -9.2830  141.6250  181.6640 C.ar  228  TRP228      0.0003
    107  CD1      -10.4800  141.8140  182.2750 C.ar  228  TRP228      0.0946
    108  CD2       -9.3580  140.3520  181.0170 C.ar  228  TRP228      0.0152
    109  NE1      -11.3050  140.7430  182.0500 N.ar  228  TRP228     -0.2442
    110  CE2      -10.6390  139.8270  181.2800 C.ar  228  TRP228      0.0810
    111  CE3       -8.4650  139.6020  180.2370 C.ar  228  TRP228      0.0012
    112  CZ2      -11.0550  138.5810  180.7910 C.ar  228  TRP228      0.0191
    113  CZ3       -8.8740  138.3730  179.7530 C.ar  228  TRP228      0.0001
    114  CH2      -10.1600  137.8720  180.0320 C.ar  228  TRP228      0.0015
    115  N         -3.4610  144.1450  178.4730 N.3   233  LEU233     -0.1231
    116  CA        -3.7910  144.1750  177.0590 C.3   233  LEU233      0.1693
    117  C         -3.5570  145.5290  176.3770 C.2   233  LEU233      0.2592
    118  O         -3.8130  146.5830  176.9600 O.2   233  LEU233     -0.2718
    119  CB        -5.2560  143.7600  176.8520 C.3   233  LEU233      0.0284
    120  CG        -5.7760  142.3520  177.1670 C.3   233  LEU233      0.0019
    121  CD1       -4.6310  141.3840  177.3570 C.3   233  LEU233      0.0001
    122  CD2       -6.6430  142.4020  178.3980 C.3   233  LEU233      0.0001
    123  N         -3.0540  145.4850  175.1440 N.am  234  HIS234     -0.1962
    124  CA        -2.8390  146.6860  174.3390 C.3   234  HIS234      0.1772
    125  C         -3.5570  146.4310  173.0210 C.2   234  HIS234      0.2462
    126  O         -3.8640  145.2880  172.6920 O.2   234  HIS234     -0.2730
    127  CB        -1.3610  146.9280  174.0380 C.3   234  HIS234      0.0785
    128  CG        -0.5020  147.0370  175.2520 C.ar  234  HIS234      0.0821
    129  ND1        0.6360  147.8120  175.2810 N.ar  234  HIS234     -0.2267
    130  CD2       -0.5650  146.4150  176.4520 C.ar  234  HIS234      0.1154
    131  CE1        1.2390  147.6580  176.4460 C.ar  234  HIS234      0.1986
    132  NE2        0.5310  146.8140  177.1760 N.ar  234  HIS234     -0.2212
    133  N         -3.8270  147.4830  172.2380 N.am  235  PRO235     -0.2727
    134  CA        -4.5160  147.2410  170.9690 C.3   235  PRO235      0.1402
    135  C         -3.7040  146.3990  169.9720 C.2   235  PRO235      0.2269
    136  O         -4.2610  145.7010  169.1290 O.2   235  PRO235     -0.2865
    137  CB        -4.7840  148.6530  170.4600 C.3   235  PRO235      0.0296
    138  CG        -3.6240  149.4200  171.0040 C.3   235  PRO235      0.0237
    139  CD        -3.5400  148.9150  172.4140 C.3   235  PRO235      0.0939
    140  N         -1.6340  139.3990  168.5670 N.3   317  TYR317     -0.1241
    141  CA        -3.0290  138.9660  168.4110 C.3   317  TYR317      0.1605
    142  C         -3.2940  138.0310  167.2240 C.2   317  TYR317      0.2264
    143  O         -2.5570  138.0280  166.2390 O.2   317  TYR317     -0.2867
    144  CB        -3.9680  140.1840  168.3620 C.3   317  TYR317      0.0534
    145  CG        -4.1170  140.8890  169.7010 C.ar  317  TYR317     -0.0201
    146  CD1       -3.8210  142.2550  169.8430 C.ar  317  TYR317     -0.0009
    147  CD2       -4.5410  140.1930  170.8310 C.ar  317  TYR317     -0.0009
    148  CE1       -3.9470  142.9050  171.0800 C.ar  317  TYR317      0.0417
    149  CE2       -4.6700  140.8320  172.0640 C.ar  317  TYR317      0.0417
    150  CZ        -4.3760  142.1830  172.1810 C.ar  317  TYR317      0.1957
    151  OH        -4.5410  142.7980  173.3970 O.3   317  TYR317     -0.2866
@<TRIPOS>BOND
     1    33    32    1
     2    32    31    1
     3    31    30    1
     4    21    22    1
     5    21    20    1
     6    28    27    2
     7    22    23    1
     8    30    29    1
     9    20    17    1
    10   143   142    2
    11    29    26    1
    12    27    26    1
    13    25    26    1
    14    25    18   am
    15    17    18    1
    16    17    16    1
    17   142   141    1
    18    23    24    1
    19    18    19    2
    20    41    42    1
    21    46    45    1
    22   144   141    1
    23   144   145    1
    24   141   140    1
    25    16    10   am
    26    82    81    2
    27    45    42    1
    28    45    47    1
    29    81    80    1
    30    11    10    2
    31    42    43    1
    32   136   135    2
    33    10     9    1
    34   145   146   ar
    35   145   147   ar
    36   146   148   ar
    37   135   134    1
    38    43    44    2
    39    80    79    1
    40   137   134    1
    41   137   138    1
    42     9     8    1
    43     9    12    1
    44   147   149   ar
    45   134   133    1
    46   138   139    1
    47   148   150   ar
    48    79    74   am
    49    34    35    1
    50    12    13    1
    51    77    76    1
    52   149   150   ar
    53   150   151    1
    54   133   139    1
    55   133   125   am
    56    35    38    1
    57    35    36    1
    58    74    75    2
    59    74    73    1
    60   126   125    2
    61    38    39    1
    62    38    40    1
    63    15    13    1
    64   125   124    1
    65    13    14    1
    66    76    73    1
    67    76    78    1
    68    73    72    1
    69    36    37    2
    70   127   124    1
    71   127   128    1
    72   124   123    1
    73    48    49    1
    74    63    62    2
    75    72    62   am
    76    88    89    1
    77    88    87    1
    78   123   117   am
    79    62    61    1
    80   128   129   ar
    81   128   130   ar
    82    89    83    1
    83   129   131   ar
    84    49    52    1
    85    49    50    1
    86    87    84    1
    87    52    53    1
    88     5     2    1
    89     5     6    1
    90   117   118    2
    91   117   116    1
    92    54    53   ar
    93    54    56   ar
    94   131   132   ar
    95   130   132   ar
    96    53    55   ar
    97    86    85    2
    98    83    84    1
    99     2     3    1
   100     2     1    1
   101    50    51    2
   102    61    64    1
   103    61    60    1
   104    84    85    1
   105    64    65    1
   106     6     7    1
   107   119   116    1
   108   119   120    1
   109     3     4    2
   110   116   115    1
   111    99    97   ar
   112    99   100   ar
   113   120   121    1
   114   120   122    1
   115    56    58   ar
   116    97    95   ar
   117    55    57   ar
   118     1     7    1
   119   100    98   ar
   120    65    67   ar
   121    65    66   ar
   122    67    69   ar
   123    58    57   ar
   124    58    59    1
   125    95    94    1
   126    95    96   ar
   127    94    91    1
   128    66    68   ar
   129    98    96   ar
   130    69    70   ar
   131    90    91    1
   132   113   114   ar
   133   113   111   ar
   134   114   112   ar
   135    91    92    1
   136   111   108   ar
   137    68    70   ar
   138    93    92    2
   139    70    71    1
   140   112   110   ar
   141   108   110   ar
   142   108   106   ar
   143   110   109   ar
   144   106   105    1
   145   106   107   ar
   146   105   102    1
   147   109   107   ar
   148   104   103    2
   149   101   102    1
   150   102   103    1
