@<TRIPOS>MOLECULE
tmp/1ikxA00.pdb
 143 140 0 0 0
SMALL
GASTEIGER

@<TRIPOS>ATOM
      1  N        -11.6610  133.7670  178.7250 N.3    95  PRO95      -0.2116
      2  CA       -10.9100  133.9330  177.4800 C.3    95  PRO95       0.1372
      3  C         -9.4310  133.9690  177.7540 C.2    95  PRO95       0.2244
      4  O         -9.0010  134.4750  178.7880 O.2    95  PRO95      -0.2868
      5  CB       -11.3990  135.2790  176.9460 C.3    95  PRO95       0.0268
      6  CG       -12.7390  135.4570  177.5860 C.3    95  PRO95       0.0207
      7  CD       -12.5350  134.9220  178.9730 C.3    95  PRO95       0.0892
      8  N         -5.9970  135.5800  176.5570 N.3    97  PRO97      -0.2116
      9  CA        -5.5970  136.6910  175.6840 C.3    97  PRO97       0.1372
     10  C         -5.1490  136.2720  174.2790 C.2    97  PRO97       0.2244
     11  O         -5.5370  136.8910  173.2930 O.2    97  PRO97      -0.2868
     12  CB        -4.4730  137.3620  176.4750 C.3    97  PRO97       0.0268
     13  CG        -4.9020  137.1440  177.9150 C.3    97  PRO97       0.0207
     14  CD        -5.3910  135.7000  177.8980 C.3    97  PRO97       0.0892
     15  N         -7.5360  136.2510  171.4080 N.3   100  LEU100     -0.1231
     16  CA        -8.1270  137.5150  171.0340 C.3   100  LEU100      0.1693
     17  C         -7.5720  137.9990  169.6980 C.2   100  LEU100      0.2591
     18  O         -6.3640  137.9600  169.4690 O.2   100  LEU100     -0.2718
     19  CB        -7.8620  138.5430  172.1390 C.3   100  LEU100      0.0284
     20  CG        -9.0150  138.9040  173.0880 C.3   100  LEU100      0.0019
     21  CD1       -9.8550  137.7010  173.3990 C.3   100  LEU100      0.0001
     22  CD2       -8.4460  139.5130  174.3630 C.3   100  LEU100      0.0001
     23  N         -8.4660  138.4220  168.8090 N.am  101  LYS101     -0.1980
     24  CA        -8.0600  138.9400  167.5100 C.3   101  LYS101      0.1596
     25  C         -7.4570  140.3140  167.7460 C.2   101  LYS101      0.2287
     26  O         -7.6810  140.9290  168.7850 O.2   101  LYS101     -0.2864
     27  CB        -9.2610  139.0540  166.5730 C.3   101  LYS101      0.0298
     28  CG        -9.5500  137.7900  165.7600 C.3   101  LYS101      0.0038
     29  CD       -10.8540  137.1010  166.1450 C.3   101  LYS101      0.0206
     30  CE       -10.7750  136.4760  167.5350 C.3   101  LYS101      0.1093
     31  NZ       -11.9630  135.6180  167.8530 N.3   101  LYS101     -0.1314
     32  N         -7.2530  144.0990  167.6660 N.3   103  ASN103     -0.1240
     33  CA        -8.1950  145.2250  167.5780 C.3   103  ASN103      0.1653
     34  C         -7.4830  146.5650  167.6670 C.2   103  ASN103      0.2266
     35  O         -6.4580  146.6830  168.3320 O.2   103  ASN103     -0.2867
     36  CB        -9.2300  145.1340  168.6950 C.3   103  ASN103      0.1155
     37  CG       -10.4400  144.3220  168.2980 C.2   103  ASN103      0.2627
     38  OD1      -11.0820  143.6900  169.1380 O.2   103  ASN103     -0.2716
     39  ND2      -10.7720  144.3460  167.0100 N.am  103  ASN103     -0.0877
     40  N         -9.9610  149.8740  172.0980 N.3   106  VAL106     -0.1245
     41  CA       -10.6530  149.1060  173.1210 C.3   106  VAL106      0.1561
     42  C        -10.8460  149.9330  174.4020 C.2   106  VAL106      0.2260
     43  O         -9.9030  150.5420  174.9180 O.2   106  VAL106     -0.2867
     44  CB        -9.8800  147.7710  173.4190 C.3   106  VAL106      0.0252
     45  CG1       -8.4550  148.0640  173.8500 C.3   106  VAL106      0.0019
     46  CG2      -10.6040  146.9610  174.4740 C.3   106  VAL106      0.0019
     47  N        -16.9580  144.3760  169.0140 N.3   179  VAL179     -0.1245
     48  CA       -16.7880  143.1980  169.8540 C.3   179  VAL179      0.1561
     49  C        -17.0240  143.6050  171.3120 C.2   179  VAL179      0.2260
     50  O        -16.4900  144.6210  171.7750 O.2   179  VAL179     -0.2867
     51  CB       -15.3690  142.6150  169.7220 C.3   179  VAL179      0.0252
     52  CG1      -15.3480  141.2090  170.2470 C.3   179  VAL179      0.0019
     53  CG2      -14.9180  142.6490  168.2860 C.3   179  VAL179      0.0019
     54  N        -17.2700  142.1210  175.4490 N.3   181  TYR181     -0.1241
     55  CA       -17.0570  141.0500  176.4110 C.3   181  TYR181      0.1605
     56  C        -17.5830  141.4370  177.8050 C.2   181  TYR181      0.2264
     57  O        -17.1680  142.4560  178.3620 O.2   181  TYR181     -0.2867
     58  CB       -15.5560  140.7060  176.4830 C.3   181  TYR181      0.0534
     59  CG       -15.2390  139.6710  177.5310 C.ar  181  TYR181     -0.0201
     60  CD1      -15.7830  138.3880  177.4490 C.ar  181  TYR181     -0.0009
     61  CD2      -14.4620  139.9920  178.6480 C.ar  181  TYR181     -0.0009
     62  CE1      -15.5800  137.4620  178.4390 C.ar  181  TYR181      0.0417
     63  CE2      -14.2440  139.0580  179.6550 C.ar  181  TYR181      0.0417
     64  CZ       -14.8140  137.7960  179.5410 C.ar  181  TYR181      0.1957
     65  OH       -14.6550  136.8730  180.5420 O.3   181  TYR181     -0.2866
     66  N        -16.3620  145.0080  178.2820 N.3   188  TYR188     -0.1241
     67  CA       -15.2020  145.3170  177.4530 C.3   188  TYR188      0.1605
     68  C        -15.6850  145.5120  176.0170 C.2   188  TYR188      0.2264
     69  O        -16.3920  144.6610  175.4600 O.2   188  TYR188     -0.2867
     70  CB       -14.1710  144.1910  177.5170 C.3   188  TYR188      0.0534
     71  CG       -13.3950  144.1370  178.8180 C.ar  188  TYR188     -0.0201
     72  CD1      -13.9810  143.6610  179.9940 C.ar  188  TYR188     -0.0009
     73  CD2      -12.0870  144.6030  178.8790 C.ar  188  TYR188     -0.0009
     74  CE1      -13.2760  143.6550  181.1900 C.ar  188  TYR188      0.0417
     75  CE2      -11.3850  144.6060  180.0610 C.ar  188  TYR188      0.0417
     76  CZ       -11.9790  144.1350  181.2140 C.ar  188  TYR188      0.1957
     77  OH       -11.2660  144.1820  182.3910 O.3   188  TYR188     -0.2866
     78  N        -14.4200  146.5120  172.0890 N.3   190  GLY190     -0.1225
     79  CA       -13.3040  146.7090  171.1880 C.3   190  GLY190      0.1811
     80  C        -13.7300  146.7310  169.7400 C.2   190  GLY190      0.2280
     81  O        -14.8000  146.2350  169.3850 O.2   190  GLY190     -0.2866
     82  N         -4.9180  147.4570  180.0150 N.3   227  PHE227     -0.1241
     83  CA        -5.9220  147.0160  180.9690 C.3   227  PHE227      0.1605
     84  C         -5.3070  145.9360  181.8310 C.2   227  PHE227      0.2264
     85  O         -4.5130  145.1390  181.3480 O.2   227  PHE227     -0.2867
     86  CB        -7.1110  146.3690  180.2850 C.3   227  PHE227      0.0534
     87  CG        -7.8120  147.2420  179.3200 C.ar  227  PHE227     -0.0203
     88  CD1       -8.0130  148.5840  179.5930 C.ar  227  PHE227     -0.0042
     89  CD2       -8.3490  146.6980  178.1610 C.ar  227  PHE227     -0.0042
     90  CE1       -8.7450  149.3760  178.7200 C.ar  227  PHE227     -0.0003
     91  CE2       -9.0820  147.4720  177.2830 C.ar  227  PHE227     -0.0003
     92  CZ        -9.2850  148.8150  177.5590 C.ar  227  PHE227     -0.0000
     93  N         -6.4330  142.8170  183.7000 N.3   229  TRP229     -0.1241
     94  CA        -7.5410  141.9020  183.8860 C.3   229  TRP229      0.1605
     95  C         -7.0560  140.4880  184.1690 C.2   229  TRP229      0.2264
     96  O         -6.2480  139.9450  183.4300 O.2   229  TRP229     -0.2867
     97  CB        -8.4160  141.9160  182.6340 C.3   229  TRP229      0.0550
     98  CG        -9.4720  140.8810  182.6440 C.ar  229  TRP229      0.0003
     99  CD1      -10.6700  140.9410  183.2790 C.ar  229  TRP229      0.0946
    100  CD2       -9.4080  139.5960  182.0180 C.ar  229  TRP229      0.0152
    101  NE1      -11.3650  139.7710  183.0910 N.ar  229  TRP229     -0.2442
    102  CE2      -10.6130  138.9270  182.3170 C.ar  229  TRP229      0.0810
    103  CE3       -8.4480  138.9430  181.2340 C.ar  229  TRP229      0.0012
    104  CZ2      -10.8880  137.6330  181.8580 C.ar  229  TRP229      0.0191
    105  CZ3       -8.7210  137.6560  180.7790 C.ar  229  TRP229      0.0001
    106  CH2       -9.9330  137.0160  181.0920 C.ar  229  TRP229      0.0015
    107  N         -3.4390  143.6560  179.1520 N.3   234  LEU234     -0.1231
    108  CA        -3.8580  143.7200  177.7600 C.3   234  LEU234      0.1693
    109  C         -3.6530  145.0730  177.1060 C.2   234  LEU234      0.2592
    110  O         -3.9710  146.1090  177.6790 O.2   234  LEU234     -0.2718
    111  CB        -5.3420  143.3630  177.6220 C.3   234  LEU234      0.0284
    112  CG        -5.8870  141.9840  177.9940 C.3   234  LEU234      0.0019
    113  CD1       -4.7710  140.9490  177.9240 C.3   234  LEU234      0.0001
    114  CD2       -6.5040  142.0410  179.3780 C.3   234  LEU234      0.0001
    115  N         -3.1110  145.0470  175.8970 N.am  235  HIS235     -0.1962
    116  CA        -2.9110  146.2470  175.1040 C.3   235  HIS235      0.1772
    117  C         -3.6520  145.9070  173.8220 C.2   235  HIS235      0.2462
    118  O         -3.8670  144.7340  173.5170 O.2   235  HIS235     -0.2730
    119  CB        -1.4360  146.4760  174.8020 C.3   235  HIS235      0.0785
    120  CG        -0.5900  146.6520  176.0210 C.ar  235  HIS235      0.0821
    121  ND1        0.2260  147.7470  176.2080 N.ar  235  HIS235     -0.2267
    122  CD2       -0.4100  145.8610  177.1060 C.ar  235  HIS235      0.1154
    123  CE1        0.8740  147.6230  177.3530 C.ar  235  HIS235      0.1986
    124  NE2        0.5060  146.4870  177.9180 N.ar  235  HIS235     -0.2212
    125  N         -4.0640  146.9150  173.0510 N.am  236  PRO236     -0.2727
    126  CA        -4.7790  146.5580  171.8190 C.3   236  PRO236      0.1402
    127  C         -3.8160  145.8500  170.8760 C.2   236  PRO236      0.2269
    128  O         -4.2030  145.0710  169.9980 O.2   236  PRO236     -0.2865
    129  CB        -5.2030  147.9120  171.2780 C.3   236  PRO236      0.0296
    130  CG        -4.0110  148.7590  171.6450 C.3   236  PRO236      0.0237
    131  CD        -3.7400  148.3510  173.0800 C.3   236  PRO236      0.0939
    132  N         -1.3210  138.8600  169.1300 N.3   318  TYR318     -0.1241
    133  CA        -2.6980  138.4020  169.0210 C.3   318  TYR318      0.1605
    134  C         -2.9150  137.4780  167.8330 C.2   318  TYR318      0.2264
    135  O         -2.0500  137.3710  166.9660 O.2   318  TYR318     -0.2867
    136  CB        -3.6450  139.5940  168.9620 C.3   318  TYR318      0.0534
    137  CG        -3.8120  140.2430  170.3060 C.ar  318  TYR318     -0.0201
    138  CD1       -3.4650  141.5720  170.5120 C.ar  318  TYR318     -0.0009
    139  CD2       -4.3350  139.5290  171.3750 C.ar  318  TYR318     -0.0009
    140  CE1       -3.6430  142.1780  171.7480 C.ar  318  TYR318      0.0417
    141  CE2       -4.5170  140.1240  172.6160 C.ar  318  TYR318      0.0417
    142  CZ        -4.1720  141.4510  172.7910 C.ar  318  TYR318      0.1957
    143  OH        -4.3930  142.0490  174.0040 O.3   318  TYR318     -0.2866
@<TRIPOS>BOND
     1    28    29    1
     2    28    27    1
     3    29    30    1
     4    27    24    1
     5   135   134    2
     6    39    37   am
     7    24    25    1
     8    24    23    1
     9    30    31    1
    10    33    32    1
    11    33    34    1
    12    33    36    1
    13    34    35    2
    14    25    26    2
    15   134   133    1
    16    53    51    1
    17    37    36    1
    18    37    38    2
    19    23    17   am
    20   136   133    1
    21   136   137    1
    22    47    48    1
    23   133   132    1
    24    81    80    2
    25    18    17    2
    26    17    16    1
    27    51    48    1
    28    51    52    1
    29    80    79    1
    30    48    49    1
    31   128   127    2
    32   137   138   ar
    33   137   139   ar
    34   138   140   ar
    35   127   126    1
    36    16    15    1
    37    16    19    1
    38    79    78    1
    39   129   130    1
    40   129   126    1
    41    49    50    2
    42   139   141   ar
    43   130   131    1
    44   140   142   ar
    45   126   125    1
    46    40    41    1
    47    19    20    1
    48   141   142   ar
    49   142   143    1
    50   125   131    1
    51   125   117   am
    52    20    21    1
    53    20    22    1
    54    41    44    1
    55    41    42    1
    56    11    10    2
    57    44    45    1
    58    44    46    1
    59   118   117    2
    60   117   116    1
    61    10     9    1
    62    42    43    2
    63   119   116    1
    64   119   120    1
    65   116   115    1
    66    54    55    1
    67    69    68    2
    68     9    12    1
    69     9     8    1
    70   115   109   am
    71    68    67    1
    72   120   121   ar
    73   120   122   ar
    74   121   123   ar
    75    55    58    1
    76    55    56    1
    77    12    13    1
    78    58    59    1
    79     8    14    1
    80     5     2    1
    81     5     6    1
    82   109   110    2
    83   109   108    1
    84   122   124   ar
    85    91    92   ar
    86    91    89   ar
    87   123   124   ar
    88    60    59   ar
    89    60    62   ar
    90    67    70    1
    91    67    66    1
    92     2     3    1
    93     2     1    1
    94    70    71    1
    95    59    61   ar
    96    92    90   ar
    97     6     7    1
    98   111   108    1
    99   111   112    1
   100     3     4    2
   101   108   107    1
   102    56    57    2
   103    14    13    1
   104   113   112    1
   105   112   114    1
   106    89    87   ar
   107    62    64   ar
   108    61    63   ar
   109    90    88   ar
   110     1     7    1
   111    71    73   ar
   112    71    72   ar
   113    73    75   ar
   114    87    88   ar
   115    87    86    1
   116    64    63   ar
   117    64    65    1
   118    72    74   ar
   119    82    83    1
   120    75    76   ar
   121    86    83    1
   122   105   106   ar
   123   105   103   ar
   124    83    84    1
   125   106   104   ar
   126    74    76   ar
   127    76    77    1
   128   103   100   ar
   129    85    84    2
   130   104   102   ar
   131   100   102   ar
   132   100    98   ar
   133   102   101   ar
   134    97    98    1
   135    97    94    1
   136    98    99   ar
   137   101    99   ar
   138    96    95    2
   139    93    94    1
   140    94    95    1
