@<TRIPOS>MOLECULE
tmp/1ikyA00.pdb
 158 157 0 0 0
SMALL
GASTEIGER

@<TRIPOS>ATOM
      1  N        -11.4830  134.0440  178.1860 N.3    95  PRO95      -0.2116
      2  CA       -10.7700  134.3360  176.9460 C.3    95  PRO95       0.1372
      3  C         -9.2780  134.4020  177.1950 C.2    95  PRO95       0.2244
      4  O         -8.8450  134.8500  178.2550 O.2    95  PRO95      -0.2868
      5  CB       -11.3410  135.6950  176.5320 C.3    95  PRO95       0.0268
      6  CG       -12.7270  135.6600  177.0600 C.3    95  PRO95       0.0207
      7  CD       -12.5230  135.0550  178.4400 C.3    95  PRO95       0.0892
      8  N         -7.3900  136.7970  170.9670 N.3   100  LEU100     -0.1231
      9  CA        -8.0020  138.0460  170.5610 C.3   100  LEU100      0.1693
     10  C         -7.4460  138.5040  169.2280 C.2   100  LEU100      0.2591
     11  O         -6.2440  138.4130  168.9770 O.2   100  LEU100     -0.2718
     12  CB        -7.7510  139.1250  171.6180 C.3   100  LEU100      0.0284
     13  CG        -8.3890  138.8510  172.9790 C.3   100  LEU100      0.0019
     14  CD1       -8.0200  139.9360  173.9680 C.3   100  LEU100      0.0001
     15  CD2       -9.8860  138.7720  172.8050 C.3   100  LEU100      0.0001
     16  N         -8.3330  138.9770  168.3650 N.am  101  LYS101     -0.1980
     17  CA        -7.9150  139.4840  167.0810 C.3   101  LYS101      0.1596
     18  C         -7.2310  140.8070  167.3550 C.2   101  LYS101      0.2287
     19  O         -7.4920  141.4550  168.3650 O.2   101  LYS101     -0.2864
     20  CB        -9.1160  139.6930  166.1650 C.3   101  LYS101      0.0298
     21  CG        -9.4090  138.4920  165.2760 C.3   101  LYS101      0.0038
     22  CD       -10.5670  137.6490  165.7770 C.3   101  LYS101      0.0206
     23  CE       -10.3110  137.1130  167.1660 C.3   101  LYS101      0.1093
     24  NZ       -11.5560  136.5280  167.7420 N.3   101  LYS101     -0.1314
     25  N         -6.8390  144.4720  167.3270 N.3   103  ASN103     -0.1240
     26  CA        -7.7930  145.5700  167.1710 C.3   103  ASN103      0.1653
     27  C         -7.1500  146.9380  167.2580 C.2   103  ASN103      0.2266
     28  O         -6.1860  147.1530  168.0070 O.2   103  ASN103     -0.2867
     29  CB        -8.9170  145.4750  168.2070 C.3   103  ASN103      0.1155
     30  CG       -10.1010  144.6600  167.7100 C.2   103  ASN103      0.2627
     31  OD1      -11.0490  144.3990  168.4600 O.2   103  ASN103     -0.2716
     32  ND2      -10.0580  144.2600  166.4370 N.am  103  ASN103     -0.0877
     33  N        -10.0780  150.2260  171.2390 N.3   106  VAL106     -0.1245
     34  CA       -10.7130  149.4830  172.3320 C.3   106  VAL106      0.1561
     35  C        -10.9630  150.3390  173.5860 C.2   106  VAL106      0.2260
     36  O        -10.0320  150.9370  174.1420 O.2   106  VAL106     -0.2867
     37  CB        -9.8600  148.2270  172.7260 C.3   106  VAL106      0.0252
     38  CG1       -8.4320  148.6350  173.0420 C.3   106  VAL106      0.0019
     39  CG2      -10.4850  147.5190  173.9200 C.3   106  VAL106      0.0019
     40  N        -17.0780  144.2200  168.3490 N.3   179  VAL179     -0.1231
     41  CA       -17.0090  143.1360  169.3160 C.3   179  VAL179      0.1692
     42  C        -17.2110  143.6910  170.7130 C.2   179  VAL179      0.2592
     43  O        -16.6560  144.7300  171.0810 O.2   179  VAL179     -0.2718
     44  CB       -15.6710  142.3820  169.2570 C.3   179  VAL179      0.0266
     45  CG1      -15.6660  141.4670  168.0730 C.3   179  VAL179      0.0020
     46  CG2      -14.5310  143.3460  169.1550 C.3   179  VAL179      0.0020
     47  N        -18.0340  143.0000  171.4830 N.am  180  ILE180     -0.1966
     48  CA       -18.3160  143.4260  172.8350 C.3   180  ILE180      0.1727
     49  C        -18.1780  142.2230  173.7260 C.2   180  ILE180      0.2616
     50  O        -18.8700  141.2210  173.5290 O.2   180  ILE180     -0.2715
     51  CB       -19.7660  143.9450  172.9920 C.3   180  ILE180      0.0290
     52  CG1      -20.0550  145.0530  171.9830 C.3   180  ILE180      0.0022
     53  CG2      -19.9750  144.4800  174.3990 C.3   180  ILE180      0.0023
     54  CD1      -21.5210  145.4150  171.9250 C.3   180  ILE180      0.0001
     55  N        -17.2860  142.3200  174.7030 N.am  181  TYR181     -0.1974
     56  CA       -17.0940  141.2330  175.6430 C.3   181  TYR181      0.1639
     57  C        -17.5440  141.6960  177.0210 C.2   181  TYR181      0.2290
     58  O        -17.1080  142.7410  177.5080 O.2   181  TYR181     -0.2864
     59  CB       -15.6220  140.8070  175.6800 C.3   181  TYR181      0.0560
     60  CG       -15.2840  139.8610  176.8180 C.ar  181  TYR181     -0.0198
     61  CD1      -15.8320  138.5800  176.8800 C.ar  181  TYR181     -0.0009
     62  CD2      -14.4490  140.2650  177.8570 C.ar  181  TYR181     -0.0009
     63  CE1      -15.5590  137.7350  177.9480 C.ar  181  TYR181      0.0417
     64  CE2      -14.1730  139.4270  178.9270 C.ar  181  TYR181      0.0417
     65  CZ       -14.7320  138.1660  178.9700 C.ar  181  TYR181      0.1957
     66  OH       -14.4860  137.3570  180.0570 O.3   181  TYR181     -0.2866
     67  N        -16.2010  145.2310  177.4290 N.3   188  TYR188     -0.1227
     68  CA       -15.0800  145.5430  176.5620 C.3   188  TYR188      0.1736
     69  C        -15.5580  145.6520  175.1240 C.2   188  TYR188      0.2595
     70  O        -16.1140  144.7050  174.5530 O.2   188  TYR188     -0.2718
     71  CB       -13.9670  144.4960  176.7040 C.3   188  TYR188      0.0548
     72  CG       -13.3750  144.4470  178.0910 C.ar  188  TYR188     -0.0200
     73  CD1      -14.0480  143.8080  179.1350 C.ar  188  TYR188     -0.0009
     74  CD2      -12.1810  145.1090  178.3820 C.ar  188  TYR188     -0.0009
     75  CE1      -13.5500  143.8350  180.4470 C.ar  188  TYR188      0.0417
     76  CE2      -11.6650  145.1470  179.6880 C.ar  188  TYR188      0.0417
     77  CZ       -12.3530  144.5100  180.7230 C.ar  188  TYR188      0.1957
     78  OH       -11.8570  144.5480  182.0210 O.3   188  TYR188     -0.2866
     79  N        -15.3640  146.8420  174.5610 N.am  189  VAL189     -0.1966
     80  CA       -15.7590  147.1270  173.1900 C.3   189  VAL189      0.1727
     81  C        -14.5560  147.5140  172.3490 C.2   189  VAL189      0.2616
     82  O        -13.8530  148.4950  172.6330 O.2   189  VAL189     -0.2715
     83  CB       -16.7990  148.2600  173.1330 C.3   189  VAL189      0.0290
     84  CG1      -17.0310  148.6800  171.6900 C.3   189  VAL189      0.0023
     85  CG2      -18.1070  147.7850  173.7490 C.3   189  VAL189      0.0023
     86  N        -14.3240  146.7200  171.3110 N.am  190  GLY190     -0.1955
     87  CA       -13.2110  146.9670  170.4180 C.3   190  GLY190      0.1869
     88  C        -13.6600  146.9430  168.9740 C.2   190  GLY190      0.2309
     89  O        -14.6780  146.3300  168.6290 O.2   190  GLY190     -0.2863
     90  N         -6.0390  152.0930  176.7310 N.3   225  PRO225     -0.2116
     91  CA        -5.1890  150.9020  176.7380 C.3   225  PRO225      0.1372
     92  C         -3.8020  151.5030  176.8780 C.2   225  PRO225      0.2244
     93  O         -3.5490  152.5710  176.3250 O.2   225  PRO225     -0.2868
     94  CB        -5.4180  150.3070  175.3540 C.3   225  PRO225      0.0268
     95  CG        -6.7940  150.7840  174.9990 C.3   225  PRO225      0.0207
     96  CD        -6.7550  152.2140  175.4510 C.3   225  PRO225      0.0892
     97  N         -4.0570  147.8930  179.5280 N.3   227  PHE227     -0.1241
     98  CA        -5.1910  147.2420  180.1470 C.3   227  PHE227      0.1605
     99  C         -4.7260  146.1730  181.0930 C.2   227  PHE227      0.2264
    100  O         -4.0590  145.2300  180.6800 O.2   227  PHE227     -0.2867
    101  CB        -6.0310  146.5530  179.0910 C.3   227  PHE227      0.0534
    102  CG        -7.1880  147.3440  178.6250 C.ar  227  PHE227     -0.0203
    103  CD1       -7.6650  148.4080  179.3740 C.ar  227  PHE227     -0.0042
    104  CD2       -7.8610  146.9720  177.4700 C.ar  227  PHE227     -0.0042
    105  CE1       -8.7990  149.0840  178.9850 C.ar  227  PHE227     -0.0003
    106  CE2       -8.9980  147.6390  177.0680 C.ar  227  PHE227     -0.0003
    107  CZ        -9.4740  148.6980  177.8260 C.ar  227  PHE227     -0.0000
    108  N         -5.8950  143.1930  182.9470 N.3   229  TRP229     -0.1241
    109  CA        -7.0490  142.3160  183.0490 C.3   229  TRP229      0.1605
    110  C         -6.6830  140.8860  183.4090 C.2   229  TRP229      0.2264
    111  O         -5.7740  140.3160  182.8270 O.2   229  TRP229     -0.2867
    112  CB        -7.7940  142.3330  181.7210 C.3   229  TRP229      0.0550
    113  CG        -8.9430  141.4050  181.6650 C.ar  229  TRP229      0.0003
    114  CD1      -10.1310  141.5310  182.3140 C.ar  229  TRP229      0.0946
    115  CD2       -9.0110  140.1780  180.9320 C.ar  229  TRP229      0.0152
    116  NE1      -10.9400  140.4590  182.0350 N.ar  229  TRP229     -0.2442
    117  CE2      -10.2770  139.6110  181.1870 C.ar  229  TRP229      0.0810
    118  CE3       -8.1220  139.5000  180.0810 C.ar  229  TRP229      0.0012
    119  CZ2      -10.6810  138.3910  180.6190 C.ar  229  TRP229      0.0191
    120  CZ3       -8.5250  138.2880  179.5190 C.ar  229  TRP229      0.0001
    121  CH2       -9.7920  137.7480  179.7910 C.ar  229  TRP229      0.0015
    122  N         -2.7190  144.2350  178.4860 N.3   234  LEU234     -0.1231
    123  CA        -2.9780  144.3170  177.0590 C.3   234  LEU234      0.1693
    124  C         -2.7080  145.6580  176.4350 C.2   234  LEU234      0.2592
    125  O         -2.9330  146.6940  177.0490 O.2   234  LEU234     -0.2718
    126  CB        -4.4150  143.9310  176.7570 C.3   234  LEU234      0.0284
    127  CG        -4.6750  142.4470  176.9720 C.3   234  LEU234      0.0019
    128  CD1       -4.6140  142.1490  178.4540 C.3   234  LEU234      0.0001
    129  CD2       -6.0270  142.0610  176.3990 C.3   234  LEU234      0.0001
    130  N         -2.2110  145.6120  175.2030 N.am  235  HIS235     -0.1962
    131  CA        -1.9210  146.7920  174.3970 C.3   235  HIS235      0.1772
    132  C         -2.5850  146.4420  173.0780 C.2   235  HIS235      0.2462
    133  O         -2.6650  145.2710  172.7170 O.2   235  HIS235     -0.2730
    134  CB        -0.4180  146.9600  174.2030 C.3   235  HIS235      0.0785
    135  CG         0.3250  147.2160  175.4750 C.ar  235  HIS235      0.0821
    136  ND1        0.8500  148.4500  175.7950 N.ar  235  HIS235     -0.2267
    137  CD2        0.6080  146.4030  176.5220 C.ar  235  HIS235      0.1154
    138  CE1        1.4240  148.3860  176.9830 C.ar  235  HIS235      0.1986
    139  NE2        1.2900  147.1550  177.4470 N.ar  235  HIS235     -0.2212
    140  N         -3.0790  147.4410  172.3420 N.am  236  PRO236     -0.2727
    141  CA        -3.7440  147.1730  171.0570 C.3   236  PRO236      0.1402
    142  C         -2.8490  146.3920  170.0910 C.2   236  PRO236      0.2269
    143  O         -3.3060  145.6510  169.2150 O.2   236  PRO236     -0.2865
    144  CB        -4.0520  148.5690  170.5470 C.3   236  PRO236      0.0296
    145  CG        -2.8890  149.3600  171.0870 C.3   236  PRO236      0.0237
    146  CD        -2.7810  148.8730  172.4970 C.3   236  PRO236      0.0939
    147  N         -1.1130  139.0040  168.6220 N.3   318  TYR318     -0.1241
    148  CA        -2.5240  138.5920  168.5270 C.3   318  TYR318      0.1605
    149  C         -2.8410  137.6600  167.3750 C.2   318  TYR318      0.2264
    150  O         -2.0550  137.5090  166.4530 O.2   318  TYR318     -0.2867
    151  CB        -3.4510  139.8040  168.4400 C.3   318  TYR318      0.0534
    152  CG        -3.5060  140.6100  169.7110 C.ar  318  TYR318     -0.0201
    153  CD1       -3.0210  141.9160  169.7460 C.ar  318  TYR318     -0.0009
    154  CD2       -4.0090  140.0550  170.8910 C.ar  318  TYR318     -0.0009
    155  CE1       -3.0310  142.6500  170.9260 C.ar  318  TYR318      0.0417
    156  CE2       -4.0210  140.7790  172.0740 C.ar  318  TYR318      0.0417
    157  CZ        -3.5290  142.0750  172.0810 C.ar  318  TYR318      0.1957
    158  OH        -3.5220  142.8030  173.2380 O.3   318  TYR318     -0.2866
@<TRIPOS>BOND
     1    21    22    1
     2    21    20    1
     3    22    23    1
     4    20    17    1
     5    32    30   am
     6   150   149    2
     7    17    18    1
     8    17    16    1
     9    23    24    1
    10    26    27    1
    11    26    25    1
    12    26    29    1
    13    27    28    2
    14    18    19    2
    15   149   148    1
    16    30    29    1
    17    30    31    2
    18    45    44    1
    19    40    41    1
    20    16    10   am
    21   151   148    1
    22   151   152    1
    23   148   147    1
    24    89    88    2
    25    88    87    1
    26    11    10    2
    27    46    44    1
    28   143   142    2
    29    10     9    1
    30    44    41    1
    31    41    42    1
    32   152   153   ar
    33   152   154   ar
    34   153   155   ar
    35   142   141    1
    36    87    86    1
    37   144   141    1
    38   144   145    1
    39     9     8    1
    40     9    12    1
    41    42    43    2
    42    42    47   am
    43   154   156   ar
    44   155   157   ar
    45   141   140    1
    46   145   146    1
    47    33    34    1
    48    86    81   am
    49    47    48    1
    50    12    13    1
    51    84    83    1
    52    54    52    1
    53    52    51    1
    54   156   157   ar
    55   157   158    1
    56    34    37    1
    57    34    35    1
    58   140   146    1
    59   140   132   am
    60    81    82    2
    61    81    80    1
    62   133   132    2
    63    37    38    1
    64    37    39    1
    65    15    13    1
    66    48    51    1
    67    48    49    1
    68    13    14    1
    69    51    53    1
    70   132   131    1
    71    83    80    1
    72    83    85    1
    73    80    79    1
    74    50    49    2
    75    35    36    2
    76    49    55   am
    77   134   131    1
    78   134   135    1
    79   131   130    1
    80    70    69    2
    81    79    69   am
    82    55    56    1
    83    95    94    1
    84    95    96    1
    85    69    68    1
    86   130   124   am
    87    94    91    1
    88    96    90    1
    89   135   136   ar
    90   135   137   ar
    91    56    59    1
    92    56    57    1
    93    59    60    1
    94   136   138   ar
    95    93    92    2
    96   129   127    1
    97   124   125    2
    98   124   123    1
    99   137   139   ar
   100     5     2    1
   101     5     6    1
   102    68    71    1
   103    68    67    1
   104    71    72    1
   105    90    91    1
   106    91    92    1
   107   126   127    1
   108   126   123    1
   109    60    61   ar
   110    60    62   ar
   111    61    63   ar
   112     2     3    1
   113     2     1    1
   114   127   128    1
   115   138   139   ar
   116    57    58    2
   117   123   122    1
   118     6     7    1
   119   106   104   ar
   120   106   107   ar
   121     3     4    2
   122   104   102   ar
   123   107   105   ar
   124    62    64   ar
   125    63    65   ar
   126    72    74   ar
   127    72    73   ar
   128     1     7    1
   129    74    76   ar
   130   102   101    1
   131   102   103   ar
   132    64    65   ar
   133    65    66    1
   134   105   103   ar
   135   101    98    1
   136    73    75   ar
   137   120   121   ar
   138   120   118   ar
   139    97    98    1
   140    76    77   ar
   141   121   119   ar
   142   118   115   ar
   143    98    99    1
   144    75    77   ar
   145   119   117   ar
   146   100    99    2
   147    77    78    1
   148   115   117   ar
   149   115   113   ar
   150   117   116   ar
   151   113   112    1
   152   113   114   ar
   153   112   109    1
   154   116   114   ar
   155   111   110    2
   156   108   109    1
   157   109   110    1
