@<TRIPOS>MOLECULE
tmp/1il2C00.pdb
 217 207 0 0 0
SMALL
GASTEIGER

@<TRIPOS>ATOM
      1  N         10.4850   -3.4380   -6.7960 N.3   171  GLU171     -0.1245
      2  CA         9.3120   -2.5710   -6.9920 C.3   171  GLU171      0.1567
      3  C          9.6680   -1.4800   -7.9990 C.2   171  GLU171      0.2260
      4  O          8.8340   -0.6560   -8.3730 O.2   171  GLU171     -0.2867
      5  CB         8.8520   -1.9280   -5.6790 C.3   171  GLU171      0.0388
      6  CG         8.0590   -2.8760   -4.8140 C.3   171  GLU171      0.1160
      7  CD         6.8150   -3.3990   -5.5140 C.2   171  GLU171      0.3649
      8  OE1        6.1770   -4.3200   -4.9630 O.co2 171  GLU171     -0.2457
      9  OE2        6.4690   -2.8880   -6.6020 O.co2 171  GLU171     -0.2457
     10  N          8.6670   -2.8630   -0.5560 N.3   193  SER193     -0.1203
     11  CA         7.2950   -3.3130   -0.2970 C.3   193  SER193      0.2005
     12  C          7.4210   -4.7430    0.1870 C.2   193  SER193      0.2461
     13  O          8.4540   -5.3720    0.0130 O.2   193  SER193     -0.2732
     14  CB         6.4360   -3.3260   -1.5610 C.3   193  SER193      0.2103
     15  OG         6.8980   -4.3060   -2.4770 O.3   193  SER193     -0.2182
     16  N          6.3890   -5.2550    0.8540 N.am  194  PRO194     -0.2717
     17  CA         6.3790   -6.6270    1.3610 C.3   194  PRO194      0.1535
     18  C          5.9920   -7.6380    0.2590 C.2   194  PRO194      0.2598
     19  O          5.7370   -8.8080    0.5410 O.2   194  PRO194     -0.2715
     20  CB         5.3210   -6.5630    2.4590 C.3   194  PRO194      0.0310
     21  CG         5.2020   -5.0490    2.7520 C.3   194  PRO194      0.0237
     22  CD         5.2180   -4.5330    1.3630 C.3   194  PRO194      0.0939
     23  N          5.9540   -7.1750   -0.9900 N.am  195  GLN195     -0.1978
     24  CA         5.5790   -8.0020   -2.1310 C.3   195  GLN195      0.1601
     25  C          5.9170   -9.4900   -2.0350 C.2   195  GLN195      0.2287
     26  O          5.0290  -10.3170   -1.8500 O.2   195  GLN195     -0.2864
     27  CB         6.1820   -7.4310   -3.4120 C.3   195  GLN195      0.0394
     28  CG         5.7660   -8.1720   -4.6810 C.3   195  GLN195      0.0908
     29  CD         4.2530   -8.2610   -4.8420 C.2   195  GLN195      0.2608
     30  OE1        3.5450   -7.2620   -4.7250 O.2   195  GLN195     -0.2717
     31  NE2        3.7550   -9.4620   -5.1160 N.am  195  GLN195     -0.0878
     32  N          4.3770  -11.2460    1.1020 N.3   198  LYS198     -0.1245
     33  CA         2.9370  -11.4600    1.1960 C.3   198  LYS198      0.1561
     34  C          2.5730  -12.5880    0.2420 C.2   198  LYS198      0.2260
     35  O          1.6190  -13.3200    0.4880 O.2   198  LYS198     -0.2867
     36  CB         2.1360  -10.1930    0.8640 C.3   198  LYS198      0.0271
     37  CG         2.3930   -9.6070   -0.5100 C.3   198  LYS198      0.0035
     38  CD         1.4520   -8.4360   -0.7500 C.3   198  LYS198      0.0206
     39  CE         1.7260   -7.7480   -2.0820 C.3   198  LYS198      0.1093
     40  NZ         0.8250   -6.5790   -2.2600 N.3   198  LYS198     -0.1314
     41  N         12.1380    3.2510   -0.6350 N.3   217  ARG217     -0.1245
     42  CA        12.6930    3.2470   -1.9840 C.3   217  ARG217      0.1563
     43  C         13.6630    4.4120   -2.0990 C.2   217  ARG217      0.2260
     44  O         13.2680    5.5720   -1.9920 O.2   217  ARG217     -0.2867
     45  CB        11.5680    3.3460   -3.0090 C.3   217  ARG217      0.0307
     46  CG        10.6380    2.1730   -2.8920 C.3   217  ARG217      0.0489
     47  CD         9.5020    2.1980   -3.8720 C.3   217  ARG217      0.2205
     48  NE         8.5030    1.2260   -3.4580 N.pl3 217  ARG217     -0.0865
     49  CZ         7.3500    1.0220   -4.0750 C.cat 217  ARG217      0.5346
     50  NH1        7.0290    1.7140   -5.1540 N.pl3 217  ARG217      0.1354
     51  NH2        6.4950    0.1470   -3.5820 N.pl3 217  ARG217      0.1354
     52  N          4.5040   14.3890   -3.8330 N.3   224  ASP224     -0.1225
     53  CA         3.7200   13.2110   -3.4770 C.3   224  ASP224      0.1805
     54  C          4.5790   11.9560   -3.3230 C.2   224  ASP224      0.2598
     55  O          4.0730   10.8380   -3.4170 O.2   224  ASP224     -0.2718
     56  CB         2.6010   12.9660   -4.5050 C.3   224  ASP224      0.1424
     57  CG         3.1250   12.5750   -5.8730 C.2   224  ASP224      0.3668
     58  OD1        2.3010   12.3940   -6.7940 O.co2 224  ASP224     -0.2456
     59  OD2        4.3550   12.4400   -6.0330 O.co2 224  ASP224     -0.2456
     60  N          5.8710   12.1440   -3.0600 N.am  225  ARG225     -0.1966
     61  CA         6.7950   11.0190   -2.8910 C.3   225  ARG225      0.1729
     62  C          7.8230   11.2250   -1.7980 C.2   225  ARG225      0.2616
     63  O          8.5750   12.1960   -1.8040 O.2   225  ARG225     -0.2715
     64  CB         7.5650   10.7360   -4.1890 C.3   225  ARG225      0.0348
     65  CG         6.7410   10.1270   -5.3030 C.3   225  ARG225      0.0492
     66  CD         7.4520   10.2410   -6.6570 C.3   225  ARG225      0.2205
     67  NE         8.7970    9.6640   -6.6920 N.pl3 225  ARG225     -0.0865
     68  CZ         9.6440    9.8310   -7.7090 C.cat 225  ARG225      0.5346
     69  NH1        9.2930   10.5520   -8.7710 N.pl3 225  ARG225      0.1354
     70  NH2       10.8580    9.3050   -7.6610 N.pl3 225  ARG225      0.1354
     71  N          7.8650   10.2920   -0.8650 N.am  226  GLN226     -0.1964
     72  CA         8.8380   10.3290    0.2100 C.3   226  GLN226      0.1718
     73  C          9.6250    9.0280    0.0480 C.2   226  GLN226      0.2458
     74  O          9.0860    8.0440   -0.4390 O.2   226  GLN226     -0.2730
     75  CB         8.1110   10.3960    1.5500 C.3   226  GLN226      0.0407
     76  CG         7.5530   11.7770    1.8730 C.3   226  GLN226      0.0908
     77  CD         8.6190   12.7160    2.4200 C.2   226  GLN226      0.2608
     78  OE1        8.5110   13.9300    2.3170 O.2   226  GLN226     -0.2717
     79  NE2        9.6420   12.1490    3.0290 N.am  226  GLN226     -0.0878
     80  N         10.9210    9.0200    0.3960 N.am  227  PRO227     -0.2727
     81  CA        11.7360    7.8040    0.2660 C.3   227  PRO227      0.1402
     82  C         11.2780    6.7170    1.2580 C.2   227  PRO227      0.2269
     83  O         11.6220    5.5340    1.1250 O.2   227  PRO227     -0.2865
     84  CB        13.1380    8.3220    0.5530 C.3   227  PRO227      0.0296
     85  CG        12.8620    9.3580    1.5990 C.3   227  PRO227      0.0237
     86  CD        11.7450   10.1210    0.9170 C.3   227  PRO227      0.0939
     87  N          7.6170    5.6560    3.0050 N.3   229  PHE229     -0.1241
     88  CA         6.1840    5.9110    2.9990 C.3   229  PHE229      0.1605
     89  C          5.4000    4.7220    3.5310 C.2   229  PHE229      0.2264
     90  O          5.9600    3.6630    3.8020 O.2   229  PHE229     -0.2867
     91  CB         5.7330    6.2490    1.5910 C.3   229  PHE229      0.0534
     92  CG         5.9520    5.1470    0.6100 C.ar  229  PHE229     -0.0203
     93  CD1        4.8790    4.3970    0.1410 C.ar  229  PHE229     -0.0042
     94  CD2        7.2310    4.8690    0.1300 C.ar  229  PHE229     -0.0042
     95  CE1        5.0780    3.3890   -0.7980 C.ar  229  PHE229     -0.0003
     96  CE2        7.4360    3.8570   -0.8140 C.ar  229  PHE229     -0.0003
     97  CZ         6.3560    3.1220   -1.2760 C.ar  229  PHE229     -0.0000
     98  N          2.1740    2.0170    3.1240 N.3   231  GLN231     -0.1245
     99  CA         1.2000    1.3710    2.2650 C.3   231  GLN231      0.1566
    100  C          0.1800    0.5830    3.0560 C.2   231  GLN231      0.2260
    101  O          0.4730    0.0590    4.1250 O.2   231  GLN231     -0.2867
    102  CB         1.8490    0.3520    1.3310 C.3   231  GLN231      0.0367
    103  CG         2.8910    0.8180    0.3630 C.3   231  GLN231      0.0905
    104  CD         3.2470   -0.3080   -0.5870 C.2   231  GLN231      0.2608
    105  OE1        3.3550   -1.4520   -0.1700 O.2   231  GLN231     -0.2717
    106  NE2        3.4310    0.0070   -1.8620 N.am  231  GLN231     -0.0878
    107  N         -1.0960   -2.4620    2.5310 N.3   233  ASP233     -0.1239
    108  CA        -0.7780   -3.6200    1.6990 C.3   233  ASP233      0.1674
    109  C         -1.8150   -4.7230    1.8340 C.2   233  ASP233      0.2266
    110  O         -2.2070   -5.0770    2.9500 O.2   233  ASP233     -0.2867
    111  CB         0.5750   -4.1860    2.1190 C.3   233  ASP233      0.1410
    112  CG         1.2070   -5.0380    1.0570 C.2   233  ASP233      0.3668
    113  OD1        2.2540   -5.6480    1.3510 O.co2 233  ASP233     -0.2456
    114  OD2        0.6720   -5.0890   -0.0730 O.co2 233  ASP233     -0.2456
    115  N          4.7960   -3.0840  -13.6830 N.3   448  HIS448     -0.1226
    116  CA         4.4330   -3.1370  -12.2800 C.3   448  HIS448      0.1752
    117  C          5.5560   -3.7790  -11.4600 C.2   448  HIS448      0.2596
    118  O          6.0870   -3.1620  -10.5400 O.2   448  HIS448     -0.2718
    119  CB         3.1120   -3.8820  -12.1070 C.3   448  HIS448      0.0759
    120  CG         2.5790   -3.8430  -10.7080 C.ar  448  HIS448      0.0818
    121  ND1        2.3090   -2.6630  -10.0450 N.ar  448  HIS448     -0.2268
    122  CD2        2.2720   -4.8380   -9.8420 C.ar  448  HIS448      0.1154
    123  CE1        1.8600   -2.9350   -8.8320 C.ar  448  HIS448      0.1986
    124  NE2        1.8290   -4.2480   -8.6850 N.ar  448  HIS448     -0.2212
    125  N          5.9000   -5.0210  -11.7950 N.am  449  HIS449     -0.1975
    126  CA         6.9890   -5.7820  -11.1670 C.3   449  HIS449      0.1656
    127  C          6.9980   -7.1850  -11.7930 C.2   449  HIS449      0.2291
    128  O          5.9620   -7.6850  -12.2100 O.2   449  HIS449     -0.2864
    129  CB         6.8840   -5.8310   -9.6220 C.3   449  HIS449      0.0771
    130  CG         5.6120   -6.4200   -9.0920 C.ar  449  HIS449      0.0820
    131  ND1        5.0890   -7.6130   -9.5470 N.ar  449  HIS449     -0.2267
    132  CD2        4.7910   -6.0040   -8.0990 C.ar  449  HIS449      0.1154
    133  CE1        4.0000   -7.9050   -8.8590 C.ar  449  HIS449      0.1986
    134  NE2        3.7960   -6.9450   -7.9740 N.ar  449  HIS449     -0.2212
    135  N         -2.3580    8.5610   -8.3000 N.3   482  GLU482     -0.1231
    136  CA        -2.3260    7.1140   -8.3830 C.3   482  GLU482      0.1699
    137  C         -2.2040    6.7380   -6.9090 C.2   482  GLU482      0.2592
    138  O         -1.0940    6.7450   -6.3640 O.2   482  GLU482     -0.2718
    139  CB        -1.0820    6.6790   -9.1100 C.3   482  GLU482      0.0402
    140  CG        -1.0180    5.2120   -9.3810 C.3   482  GLU482      0.1161
    141  CD         0.3590    4.6800   -9.1460 C.2   482  GLU482      0.3649
    142  OE1        0.6230    4.3240   -7.9890 O.co2 482  GLU482     -0.2457
    143  OE2        1.1740    4.6530  -10.0910 O.co2 482  GLU482     -0.2457
    144  N         -3.3460    6.4790   -6.2610 N.am  483  VAL483     -0.1966
    145  CA        -3.3820    6.1280   -4.8400 C.3   483  VAL483      0.1727
    146  C         -3.3000    4.6510   -4.5220 C.2   483  VAL483      0.2617
    147  O         -3.2810    4.2880   -3.3600 O.2   483  VAL483     -0.2715
    148  CB        -4.6590    6.6050   -4.1530 C.3   483  VAL483      0.0290
    149  CG1       -4.7160    8.1100   -4.1580 C.3   483  VAL483      0.0023
    150  CG2       -5.8760    5.9860   -4.8360 C.3   483  VAL483      0.0023
    151  N         -3.2840    3.8040   -5.5390 N.am  484  GLY484     -0.1940
    152  CA        -3.2020    2.3790   -5.2920 C.3   484  GLY484      0.2014
    153  C         -2.8840    1.6490   -6.5730 C.2   484  GLY484      0.2639
    154  O         -3.2480    2.1250   -7.6440 O.2   484  GLY484     -0.2714
    155  N         -2.2070    0.5110   -6.4660 N.am  485  GLY485     -0.1939
    156  CA        -1.8670   -0.2740   -7.6410 C.3   485  GLY485      0.2014
    157  C         -1.6970   -1.7360   -7.2670 C.2   485  GLY485      0.2639
    158  O         -1.2320   -2.0430   -6.1650 O.2   485  GLY485     -0.2714
    159  N         -2.0750   -2.6410   -8.1650 N.am  486  GLY486     -0.1954
    160  CA        -1.9450   -4.0620   -7.8680 C.3   486  GLY486      0.1869
    161  C         -1.8590   -4.9640   -9.0790 C.2   486  GLY486      0.2309
    162  O         -1.6380   -4.4980  -10.1900 O.2   486  GLY486     -0.2863
    163  N         -0.8600  -12.2850   -9.3480 N.3   489  ARG489     -0.1245
    164  CA         0.5080  -12.8050   -9.3580 C.3   489  ARG489      0.1563
    165  C          0.7280  -14.0250  -10.2290 C.2   489  ARG489      0.2260
    166  O         -0.2000  -14.7430  -10.5980 O.2   489  ARG489     -0.2867
    167  CB         0.9500  -13.1930   -7.9480 C.3   489  ARG489      0.0307
    168  CG         0.5110  -12.2490   -6.8660 C.3   489  ARG489      0.0489
    169  CD         0.9820  -10.8450   -7.1060 C.3   489  ARG489      0.2205
    170  NE         0.3990   -9.9890   -6.0870 N.pl3 489  ARG489     -0.0865
    171  CZ         0.4960   -8.6680   -6.0580 C.cat 489  ARG489      0.5346
    172  NH1        1.1630   -8.0220   -7.0010 N.pl3 489  ARG489      0.1354
    173  NH2       -0.1000   -7.9970   -5.0910 N.pl3 489  ARG489      0.1354
    174  N         -2.8600   -5.9290   -3.9190 N.3   531  LEU531     -0.1231
    175  CA        -2.7550   -4.5060   -4.2410 C.3   531  LEU531      0.1693
    176  C         -2.3370   -3.7290   -3.0030 C.2   531  LEU531      0.2591
    177  O         -2.5800   -4.1650   -1.8840 O.2   531  LEU531     -0.2718
    178  CB        -4.1130   -3.9820   -4.7460 C.3   531  LEU531      0.0284
    179  CG        -4.3860   -2.4660   -4.8080 C.3   531  LEU531      0.0019
    180  CD1       -5.5990   -2.2050   -5.6940 C.3   531  LEU531      0.0001
    181  CD2       -4.6260   -1.8920   -3.4060 C.3   531  LEU531      0.0001
    182  N         -1.7120   -2.5760   -3.1990 N.am  532  ALA532     -0.1980
    183  CA        -1.2990   -1.7700   -2.0570 C.3   532  ALA532      0.1597
    184  C         -1.6890   -0.3280   -2.2720 C.2   532  ALA532      0.2287
    185  O         -1.5250    0.1950   -3.3620 O.2   532  ALA532     -0.2864
    186  CB         0.1970   -1.8720   -1.8560 C.3   532  ALA532      0.0319
    187  N         -1.3500    3.7930   -1.2730 N.3   534  GLY534     -0.1225
    188  CA        -0.3490    4.7080   -0.7560 C.3   534  GLY534      0.1811
    189  C         -1.1140    5.4200    0.3540 C.2   534  GLY534      0.2280
    190  O         -1.9010    6.3240    0.0810 O.2   534  GLY534     -0.2866
    191  N         -0.2820    7.5760    2.5960 N.3   536  ASP536     -0.1225
    192  CA         0.0160    8.9900    2.6300 C.3   536  ASP536      0.1805
    193  C         -0.8940    9.7200    1.6580 C.2   536  ASP536      0.2597
    194  O         -1.6550   10.6060    2.0490 O.2   536  ASP536     -0.2718
    195  CB         1.4620    9.2140    2.2360 C.3   536  ASP536      0.1424
    196  CG         2.4060    8.3860    3.0510 C.2   536  ASP536      0.3668
    197  OD1        2.5250    8.6450    4.2580 O.co2 536  ASP536     -0.2456
    198  OD2        3.0280    7.4640    2.4920 O.co2 536  ASP536     -0.2456
    199  N         -0.8050    9.3320    0.3920 N.am  537  ARG537     -0.1979
    200  CA        -1.6160    9.9570   -0.6380 C.3   537  ARG537      0.1597
    201  C         -3.1090    9.8710   -0.3510 C.2   537  ARG537      0.2287
    202  O         -3.8590   10.8040   -0.6380 O.2   537  ARG537     -0.2864
    203  CB        -1.2990    9.3310   -1.9860 C.3   537  ARG537      0.0334
    204  CG         0.1300    9.5760   -2.4210 C.3   537  ARG537      0.0492
    205  CD         0.4120    9.0350   -3.7960 C.3   537  ARG537      0.2205
    206  NE         1.8080    9.2110   -4.1670 N.pl3 537  ARG537     -0.0865
    207  CZ         2.3620    8.6670   -5.2410 C.cat 537  ARG537      0.5346
    208  NH1        3.6410    8.8860   -5.4990 N.pl3 537  ARG537      0.1354
    209  NH2        1.6410    7.8900   -6.0430 N.pl3 537  ARG537      0.1354
    210  N          2.6110   15.8280    0.3570 N.3   548  ILE548     -0.1245
    211  CA         2.6840   14.6030    1.1410 C.3   548  ILE548      0.1561
    212  C          3.2290   14.7820    2.5680 C.2   548  ILE548      0.2260
    213  O          2.7450   14.1570    3.5130 O.2   548  ILE548     -0.2867
    214  CB         3.5260   13.5280    0.4490 C.3   548  ILE548      0.0252
    215  CG1        3.2830   12.1960    1.1410 C.3   548  ILE548      0.0019
    216  CG2        5.0050   13.8730    0.5110 C.3   548  ILE548      0.0019
    217  CD1        4.1180   11.0680    0.5950 C.3   548  ILE548      0.0001
@<TRIPOS>BOND
     1   115   116    1
     2   116   119    1
     3   116   117    1
     4   128   127    2
     5   119   120    1
     6   125   117   am
     7   125   126    1
     8   127   126    1
     9   117   118    2
    10   126   129    1
    11   120   121   ar
    12   120   122   ar
    13   166   165    2
    14   165   164    1
    15   162   161    2
    16   143   141   ar
    17   121   123   ar
    18   122   124   ar
    19   129   130    1
    20   131   130   ar
    21   131   133   ar
    22   140   141    1
    23   140   139    1
    24   164   163    1
    25   164   167    1
    26   141   142   ar
    27   139   136    1
    28   130   132   ar
    29   161   160    1
    30   133   134   ar
    31   123   124   ar
    32    69    68    1
    33   136   135    1
    34   136   137    1
    35     4     3    2
    36   159   160    1
    37   159   157   am
    38   132   134   ar
    39     3     2    1
    40   167   168    1
    41    68    70    1
    42    68    67    2
    43   154   153    2
    44   156   157    1
    45   156   155    1
    46   157   158    2
    47   169   168    1
    48   169   170    1
    49   172   171    1
    50     2     1    1
    51     2     5    1
    52   137   138    2
    53   137   144   am
    54    58    57   ar
    55    67    66    1
    56    66    65    1
    57     9     7   ar
    58   153   155   am
    59   153   152    1
    60   144   145    1
    61   170   171    2
    62   171   173    1
    63   209   207    1
    64    59    57   ar
    65    57    56    1
    66   180   179    1
    67     5     6    1
    68   151   152    1
    69   151   146   am
    70     7     8   ar
    71     7     6    1
    72   208   207    1
    73    65    64    1
    74   207   206    2
    75    50    49    1
    76    31    29   am
    77    29    30    2
    78    29    28    1
    79   145   146    1
    80   145   148    1
    81   150   148    1
    82   179   178    1
    83   179   181    1
    84   178   175    1
    85    28    27    1
    86   146   147    2
    87    56    53    1
    88   175   174    1
    89   175   176    1
    90    64    61    1
    91   206   205    1
    92   149   148    1
    93    49    51    1
    94    49    48    2
    95    47    48    1
    96    47    46    1
    97    52    53    1
    98   205   204    1
    99    53    54    1
   100    55    54    2
   101    27    24    1
   102   185   184    2
   103    54    60   am
   104   182   176   am
   105   182   183    1
   106    60    61    1
   107    45    46    1
   108    45    42    1
   109   176   177    2
   110    61    62    1
   111    15    14    1
   112   204   203    1
   113   184   183    1
   114    40    39    1
   115    24    25    1
   116    24    23    1
   117    43    44    2
   118    43    42    1
   119    39    38    1
   120   183   186    1
   121    25    26    2
   122   203   200    1
   123    42    41    1
   124   106   104   am
   125    63    62    2
   126    62    71   am
   127    14    11    1
   128    97    96   ar
   129    97    95   ar
   130   187   188    1
   131    23    18   am
   132    71    72    1
   133    96    94   ar
   134    95    93   ar
   135   188   189    1
   136    38    37    1
   137   200   201    1
   138   200   199    1
   139   202   201    2
   140   104   105    2
   141   104   103    1
   142    10    11    1
   143    37    36    1
   144    74    73    2
   145    11    12    1
   146   114   112   ar
   147    13    12    2
   148    73    72    1
   149    73    80   am
   150   190   189    2
   151    94    92   ar
   152    93    92   ar
   153    12    16   am
   154    72    75    1
   155    34    35    2
   156    34    33    1
   157    18    19    2
   158    18    17    1
   159    81    80    1
   160    81    84    1
   161    81    82    1
   162   210   211    1
   163   103   102    1
   164   199   193   am
   165    80    86    1
   166   214   216    1
   167   214   215    1
   168   214   211    1
   169    84    85    1
   170   217   215    1
   171    92    91    1
   172    16    17    1
   173    16    22    1
   174    36    33    1
   175    86    85    1
   176   112   113   ar
   177   112   111    1
   178    32    33    1
   179    83    82    2
   180   211   212    1
   181   102    99    1
   182    17    20    1
   183    22    21    1
   184    75    76    1
   185    91    88    1
   186   193   194    2
   187   193   192    1
   188   108   109    1
   189   108   111    1
   190   108   107    1
   191   109   110    2
   192    76    77    1
   193   195   192    1
   194   195   196    1
   195    99   100    1
   196    99    98    1
   197    78    77    2
   198    77    79   am
   199    20    21    1
   200   198   196   ar
   201   212   213    2
   202   191   192    1
   203    88    87    1
   204    88    89    1
   205   196   197   ar
   206   100   101    2
   207    89    90    2
