@<TRIPOS>MOLECULE
tmp/1il3A00.pdb
 93 90 0 0 0
SMALL
GASTEIGER

@<TRIPOS>ATOM
      1  N         -4.7240    2.8590   12.3100 N.3    79  ALA79      -0.1231
      2  CA        -4.4580    1.4550   11.9970 C.3    79  ALA79       0.1694
      3  C         -3.0750    1.2970   11.3560 C.2    79  ALA79       0.2592
      4  O         -2.9090    0.5840   10.3670 O.2    79  ALA79      -0.2718
      5  CB        -5.5460    0.9010   11.0750 C.3    79  ALA79       0.0304
      6  N         -2.0890    1.9720   11.9380 N.am   80  TYR80      -0.1962
      7  CA        -0.7180    1.9380   11.4430 C.3    80  TYR80       0.1771
      8  C          0.1010    0.9840   12.3020 C.2    80  TYR80       0.2619
      9  O          0.0700    1.0670   13.5350 O.2    80  TYR80      -0.2715
     10  CB        -0.1170    3.3440   11.5250 C.3    80  TYR80       0.0574
     11  CG         1.1560    3.5670   10.7360 C.ar   80  TYR80      -0.0198
     12  CD1        2.4090    3.3090   11.2990 C.ar   80  TYR80      -0.0009
     13  CD2        1.1100    4.0860    9.4430 C.ar   80  TYR80      -0.0009
     14  CE1        3.5850    3.5690   10.5940 C.ar   80  TYR80       0.0417
     15  CE2        2.2760    4.3500    8.7310 C.ar   80  TYR80       0.0417
     16  CZ         3.5090    4.0920    9.3090 C.ar   80  TYR80       0.1957
     17  OH         4.6540    4.3670    8.5980 O.3    80  TYR80      -0.2866
     18  N          0.8110    0.0640   11.6590 N.am   81  VAL81      -0.1977
     19  CA         1.6450   -0.8900   12.3800 C.3    81  VAL81       0.1596
     20  C          2.9200   -0.1540   12.7750 C.2    81  VAL81       0.2287
     21  O          3.7580    0.1500   11.9270 O.2    81  VAL81      -0.2864
     22  CB         1.9990   -2.1170   11.5050 C.3    81  VAL81       0.0276
     23  CG1        2.8310   -3.1150   12.3030 C.3    81  VAL81       0.0022
     24  CG2        0.7290   -2.7790   10.9900 C.3    81  VAL81       0.0022
     25  N          9.3860    0.9530   14.1540 N.3    93  PHE93      -0.1241
     26  CA         9.8290    1.7120   12.9920 C.3    93  PHE93       0.1605
     27  C         10.2410    3.0940   13.4900 C.2    93  PHE93       0.2264
     28  O          9.9450    3.4580   14.6300 O.2    93  PHE93      -0.2867
     29  CB         8.6870    1.8620   11.9850 C.3    93  PHE93       0.0534
     30  CG         8.2480    0.5690   11.3590 C.ar   93  PHE93      -0.0203
     31  CD1        9.1190   -0.1660   10.5610 C.ar   93  PHE93      -0.0042
     32  CD2        6.9460    0.1090   11.5300 C.ar   93  PHE93      -0.0042
     33  CE1        8.7000   -1.3380    9.9400 C.ar   93  PHE93      -0.0003
     34  CE2        6.5170   -1.0620   10.9140 C.ar   93  PHE93      -0.0003
     35  CZ         7.3930   -1.7840   10.1170 C.ar   93  PHE93      -0.0000
     36  N          8.1780    2.8040    8.6860 N.3   121  GLY121     -0.1210
     37  CA         7.3580    1.7010    8.2190 C.3   121  GLY121      0.1956
     38  C          6.3890    2.0220    7.0980 C.2   121  GLY121      0.2612
     39  O          5.5150    1.2140    6.7880 O.2   121  GLY121     -0.2717
     40  N          6.5170    3.2000    6.4990 N.am  122  ASN122     -0.1960
     41  CA         5.6290    3.5910    5.4080 C.3   122  ASN122      0.1819
     42  C          5.9700    2.8580    4.1140 C.2   122  ASN122      0.2621
     43  O          7.1400    2.7340    3.7480 O.2   122  ASN122     -0.2715
     44  CB         5.6340    5.1100    5.1970 C.3   122  ASN122      0.1195
     45  CG         7.0170    5.7170    5.3130 C.2   122  ASN122      0.2630
     46  OD1        7.8910    5.4700    4.4850 O.2   122  ASN122     -0.2716
     47  ND2        7.2210    6.5170    6.3510 N.am  122  ASN122     -0.0877
     48  N          4.9300    2.3680    3.4410 N.am  123  TYR123     -0.1974
     49  CA         5.0480    1.6180    2.1900 C.3   123  TYR123      0.1639
     50  C          6.2290    1.9750    1.2980 C.2   123  TYR123      0.2290
     51  O          7.0140    1.1030    0.9420 O.2   123  TYR123     -0.2864
     52  CB         3.7550    1.7200    1.3760 C.3   123  TYR123      0.0560
     53  CG         2.6330    0.8290    1.8640 C.ar  123  TYR123     -0.0198
     54  CD1        2.9020   -0.4080    2.4530 C.ar  123  TYR123     -0.0009
     55  CD2        1.2990    1.2080    1.7060 C.ar  123  TYR123     -0.0009
     56  CE1        1.8720   -1.2450    2.8670 C.ar  123  TYR123      0.0417
     57  CE2        0.2610    0.3770    2.1170 C.ar  123  TYR123      0.0417
     58  CZ         0.5550   -0.8480    2.6960 C.ar  123  TYR123      0.1957
     59  OH        -0.4670   -1.6790    3.0950 O.3   123  TYR123     -0.2866
     60  N          0.6760   -5.9370    6.8300 N.3   172  ILE172     -0.1245
     61  CA        -0.0310   -4.6580    6.8430 C.3   172  ILE172      0.1561
     62  C         -1.3210   -4.7090    6.0260 C.2   172  ILE172      0.2260
     63  O         -2.4040   -4.4050    6.5370 O.2   172  ILE172     -0.2867
     64  CB         0.8610   -3.5150    6.2990 C.3   172  ILE172      0.0252
     65  CG1        2.0440   -3.2700    7.2380 C.3   172  ILE172      0.0019
     66  CG2        0.0470   -2.2430    6.1480 C.3   172  ILE172      0.0019
     67  CD1        3.0490   -2.2600    6.7140 C.3   172  ILE172      0.0001
     68  N         -4.2590   -4.2500    8.6260 N.3   176  SER176     -0.1202
     69  CA        -4.6240   -2.8390    8.6730 C.3   176  SER176      0.2020
     70  C         -5.5300   -2.4340    7.5170 C.2   176  SER176      0.2618
     71  O         -6.6360   -1.9350    7.7300 O.2   176  SER176     -0.2717
     72  CB        -3.3650   -1.9710    8.6770 C.3   176  SER176      0.2103
     73  OG        -2.5110   -2.3340    9.7480 O.3   176  SER176     -0.2182
     74  N         -5.0780   -2.6970    6.2970 N.am  177  GLU177     -0.1979
     75  CA        -5.8510   -2.3460    5.1130 C.3   177  GLU177      0.1602
     76  C         -7.1730   -3.1070    5.0490 C.2   177  GLU177      0.2287
     77  O         -8.1860   -2.5650    4.6030 O.2   177  GLU177     -0.2864
     78  CB        -5.0260   -2.5900    3.8460 C.3   177  GLU177      0.0415
     79  CG        -3.7010   -1.8200    3.7840 C.3   177  GLU177      0.1163
     80  CD        -3.8560   -0.3160    3.5740 C.2   177  GLU177      0.3649
     81  OE1       -2.8240    0.3500    3.3500 O.co2 177  GLU177     -0.2457
     82  OE2       -4.9880    0.2110    3.6260 O.co2 177  GLU177     -0.2457
     83  N         -9.5570   -1.4370    7.3450 N.3   180  ARG180     -0.1245
     84  CA        -9.9060   -0.1460    6.7730 C.3   180  ARG180      0.1563
     85  C        -10.9530   -0.2760    5.6760 C.2   180  ARG180      0.2260
     86  O        -11.9140    0.4920    5.6380 O.2   180  ARG180     -0.2867
     87  CB        -8.6680    0.5300    6.1870 C.3   180  ARG180      0.0307
     88  CG        -7.6660    1.0510    7.1920 C.3   180  ARG180      0.0489
     89  CD        -6.4320    1.5190    6.4420 C.3   180  ARG180      0.2205
     90  NE        -5.5080    2.2970    7.2590 N.pl3 180  ARG180     -0.0865
     91  CZ        -4.3910    2.8410    6.7880 C.cat 180  ARG180      0.5346
     92  NH1       -4.0610    2.6890    5.5130 N.pl3 180  ARG180      0.1354
     93  NH2       -3.6150    3.5560    7.5870 N.pl3 180  ARG180      0.1354
@<TRIPOS>BOND
     1    51    50    2
     2    50    49    1
     3    52    53    1
     4    52    49    1
     5    55    53   ar
     6    55    57   ar
     7    53    54   ar
     8    57    58   ar
     9    49    48    1
    10    54    56   ar
    11    58    56   ar
    12    58    59    1
    13    81    80   ar
    14    48    42   am
    15    80    82   ar
    16    80    79    1
    17    43    42    2
    18    79    78    1
    19    78    75    1
    20    42    41    1
    21    46    45    2
    22    77    76    2
    23    76    75    1
    24    75    74    1
    25    44    45    1
    26    44    41    1
    27    45    47   am
    28    41    40    1
    29    92    91    1
    30    86    85    2
    31    85    84    1
    32    62    63    2
    33    62    61    1
    34    66    64    1
    35    87    84    1
    36    87    88    1
    37    74    70   am
    38    64    61    1
    39    64    65    1
    40    89    88    1
    41    89    90    1
    42    40    38   am
    43    67    65    1
    44    84    83    1
    45    39    38    2
    46    91    90    2
    47    91    93    1
    48    60    61    1
    49    38    37    1
    50    70    71    2
    51    70    69    1
    52    37    36    1
    53    17    16    1
    54    68    69    1
    55    69    72    1
    56    72    73    1
    57    15    16   ar
    58    15    13   ar
    59    16    14   ar
    60    13    11   ar
    61    33    35   ar
    62    33    31   ar
    63    35    34   ar
    64     4     3    2
    65    31    30   ar
    66    14    12   ar
    67    11    12   ar
    68    11    10    1
    69    34    32   ar
    70    24    22    1
    71     5     2    1
    72     3     6   am
    73     3     2    1
    74    30    32   ar
    75    30    29    1
    76     7    10    1
    77     7     6    1
    78     7     8    1
    79    22    23    1
    80    22    19    1
    81    18     8   am
    82    18    19    1
    83    21    20    2
    84    29    26    1
    85     2     1    1
    86     8     9    2
    87    19    20    1
    88    26    27    1
    89    26    25    1
    90    27    28    2
