@<TRIPOS>MOLECULE
tmp/1il4A00.pdb
 93 90 0 0 0
SMALL
GASTEIGER

@<TRIPOS>ATOM
      1  N         -4.9870    2.7310   12.2900 N.3    79  ALA79      -0.1231
      2  CA        -4.6820    1.3330   11.9920 C.3    79  ALA79       0.1694
      3  C         -3.2740    1.1980   11.4060 C.2    79  ALA79       0.2592
      4  O         -3.0280    0.3810   10.5200 O.2    79  ALA79      -0.2718
      5  CB        -5.7240    0.7550   11.0310 C.3    79  ALA79       0.0304
      6  N         -2.3530    2.0120   11.9130 N.am   80  TYR80      -0.1962
      7  CA        -0.9690    2.0040   11.4520 C.3    80  TYR80       0.1771
      8  C         -0.1440    1.0510   12.3100 C.2    80  TYR80       0.2619
      9  O         -0.1490    1.1510   13.5390 O.2    80  TYR80      -0.2715
     10  CB        -0.3890    3.4190   11.5500 C.3    80  TYR80       0.0574
     11  CG         0.9540    3.6230   10.8820 C.ar   80  TYR80      -0.0198
     12  CD1        2.1430    3.3470   11.5570 C.ar   80  TYR80      -0.0009
     13  CD2        1.0360    4.1240    9.5830 C.ar   80  TYR80      -0.0009
     14  CE1        3.3830    3.5660   10.9570 C.ar   80  TYR80       0.0417
     15  CE2        2.2690    4.3470    8.9730 C.ar   80  TYR80       0.0417
     16  CZ         3.4370    4.0670    9.6650 C.ar   80  TYR80       0.1957
     17  OH         4.6550    4.2910    9.0630 O.3    80  TYR80      -0.2866
     18  N          0.5520    0.1190   11.6670 N.am   81  VAL81      -0.1977
     19  CA         1.3920   -0.8300   12.3900 C.3    81  VAL81       0.1596
     20  C          2.6530   -0.0800   12.8060 C.2    81  VAL81       0.2287
     21  O          3.4900    0.2480   11.9660 O.2    81  VAL81      -0.2864
     22  CB         1.7850   -2.0350   11.5050 C.3    81  VAL81       0.0276
     23  CG1        2.6420   -3.0160   12.2950 C.3    81  VAL81       0.0022
     24  CG2        0.5400   -2.7270   10.9730 C.3    81  VAL81       0.0022
     25  N          9.0690    1.0750   14.2030 N.3    93  PHE93      -0.1241
     26  CA         9.4540    1.8460   13.0270 C.3    93  PHE93       0.1605
     27  C          9.8590    3.2380   13.4980 C.2    93  PHE93       0.2264
     28  O          9.4120    3.6930   14.5530 O.2    93  PHE93      -0.2867
     29  CB         8.2810    1.9650   12.0490 C.3    93  PHE93       0.0534
     30  CG         7.8970    0.6710   11.3940 C.ar   93  PHE93      -0.0203
     31  CD1        8.8340   -0.0650   10.6790 C.ar   93  PHE93      -0.0042
     32  CD2        6.5910    0.2010   11.4720 C.ar   93  PHE93      -0.0042
     33  CE1        8.4760   -1.2500   10.0480 C.ar   93  PHE93      -0.0003
     34  CE2        6.2220   -0.9850   10.8440 C.ar   93  PHE93      -0.0003
     35  CZ         7.1660   -1.7110   10.1310 C.ar   93  PHE93      -0.0000
     36  N          8.0720    3.0530    8.4560 N.3   121  GLY121     -0.1210
     37  CA         7.2900    1.8780    8.1190 C.3   121  GLY121      0.1956
     38  C          6.2800    2.0810    7.0070 C.2   121  GLY121      0.2612
     39  O          5.4010    1.2430    6.8080 O.2   121  GLY121     -0.2717
     40  N          6.3940    3.1870    6.2800 N.am  122  ASN122     -0.1960
     41  CA         5.4690    3.4770    5.1880 C.3   122  ASN122      0.1819
     42  C          5.8310    2.7260    3.9110 C.2   122  ASN122      0.2621
     43  O          7.0090    2.5000    3.6210 O.2   122  ASN122     -0.2715
     44  CB         5.3820    4.9860    4.9230 C.3   122  ASN122      0.1195
     45  CG         6.7370    5.6230    4.6550 C.2   122  ASN122      0.2630
     46  OD1        7.7800    4.9820    4.7710 O.2   122  ASN122     -0.2716
     47  ND2        6.7240    6.9020    4.3080 N.am  122  ASN122     -0.0877
     48  N          4.8050    2.3520    3.1520 N.am  123  TYR123     -0.1974
     49  CA         4.9630    1.6110    1.9010 C.3   123  TYR123      0.1639
     50  C          6.1600    1.9950    1.0350 C.2   123  TYR123      0.2290
     51  O          6.9910    1.1460    0.7210 O.2   123  TYR123     -0.2864
     52  CB         3.6790    1.6920    1.0690 C.3   123  TYR123      0.0560
     53  CG         2.5370    0.8640    1.6130 C.ar  123  TYR123     -0.0198
     54  CD1        2.7490   -0.4360    2.0720 C.ar  123  TYR123     -0.0009
     55  CD2        1.2410    1.3750    1.6620 C.ar  123  TYR123     -0.0009
     56  CE1        1.7000   -1.2070    2.5650 C.ar  123  TYR123      0.0417
     57  CE2        0.1840    0.6120    2.1550 C.ar  123  TYR123      0.0417
     58  CZ         0.4230   -0.6770    2.6030 C.ar  123  TYR123      0.1957
     59  OH        -0.6110   -1.4400    3.0920 O.3   123  TYR123     -0.2866
     60  N          0.5760   -5.8410    6.9010 N.3   172  ILE172     -0.1245
     61  CA        -0.1270   -4.5640    6.8760 C.3   172  ILE172      0.1561
     62  C         -1.3940   -4.6370    6.0270 C.2   172  ILE172      0.2260
     63  O         -2.4860   -4.3020    6.4960 O.2   172  ILE172     -0.2867
     64  CB         0.7870   -3.4370    6.3350 C.3   172  ILE172      0.0252
     65  CG1        1.9390   -3.1780    7.3090 C.3   172  ILE172      0.0019
     66  CG2       -0.0120   -2.1660    6.1150 C.3   172  ILE172      0.0019
     67  CD1        2.9860   -2.2160    6.7870 C.3   172  ILE172      0.0001
     68  N         -4.2750   -4.3390    8.5790 N.3   176  SER176     -0.1202
     69  CA        -4.6260   -2.9230    8.6000 C.3   176  SER176      0.2020
     70  C         -5.5600   -2.5350    7.4570 C.2   176  SER176      0.2618
     71  O         -6.6790   -2.0730    7.6890 O.2   176  SER176     -0.2717
     72  CB        -3.3550   -2.0720    8.5500 C.3   176  SER176      0.2103
     73  OG        -2.4650   -2.4160    9.6010 O.3   176  SER176     -0.2182
     74  N         -5.1120   -2.7590    6.2250 N.am  177  GLU177     -0.1979
     75  CA        -5.9060   -2.4190    5.0490 C.3   177  GLU177      0.1602
     76  C         -7.2290   -3.1770    5.0060 C.2   177  GLU177      0.2287
     77  O         -8.2600   -2.6140    4.6350 O.2   177  GLU177     -0.2864
     78  CB        -5.1070   -2.6730    3.7680 C.3   177  GLU177      0.0415
     79  CG        -3.8070   -1.8760    3.6590 C.3   177  GLU177      0.1163
     80  CD        -4.0070   -0.3710    3.5040 C.2   177  GLU177      0.3649
     81  OE1       -2.9880    0.3460    3.4380 O.co2 177  GLU177     -0.2457
     82  OE2       -5.1620    0.1030    3.4370 O.co2 177  GLU177     -0.2457
     83  N         -9.5910   -1.5700    7.2350 N.3   180  ARG180     -0.1245
     84  CA        -9.9460   -0.2620    6.6970 C.3   180  ARG180      0.1563
     85  C        -11.0170   -0.3610    5.6140 C.2   180  ARG180      0.2260
     86  O        -12.0080    0.3720    5.6400 O.2   180  ARG180     -0.2867
     87  CB        -8.7110    0.4240    6.1080 C.3   180  ARG180      0.0307
     88  CG        -7.7050    0.9450    7.1160 C.3   180  ARG180      0.0489
     89  CD        -6.5040    1.4880    6.3690 C.3   180  ARG180      0.2205
     90  NE        -5.5960    2.2620    7.2080 N.pl3 180  ARG180     -0.0865
     91  CZ        -4.4860    2.8410    6.7580 C.cat 180  ARG180      0.5346
     92  NH1       -4.1450    2.7290    5.4810 N.pl3 180  ARG180      0.1354
     93  NH2       -3.7210    3.5440    7.5800 N.pl3 180  ARG180      0.1354
@<TRIPOS>BOND
     1    51    50    2
     2    50    49    1
     3    52    53    1
     4    52    49    1
     5    53    55   ar
     6    53    54   ar
     7    55    57   ar
     8    49    48    1
     9    54    56   ar
    10    57    58   ar
    11    56    58   ar
    12    58    59    1
    13    48    42   am
    14    82    80   ar
    15    81    80   ar
    16    80    79    1
    17    43    42    2
    18    79    78    1
    19    78    75    1
    20    42    41    1
    21    47    45   am
    22    77    76    2
    23    45    46    2
    24    45    44    1
    25    44    41    1
    26    76    75    1
    27    75    74    1
    28    41    40    1
    29    92    91    1
    30    85    86    2
    31    85    84    1
    32    62    63    2
    33    62    61    1
    34    87    84    1
    35    87    88    1
    36    66    64    1
    37    74    70   am
    38    40    38   am
    39    64    61    1
    40    64    65    1
    41    89    88    1
    42    89    90    1
    43    84    83    1
    44    91    90    2
    45    91    93    1
    46    67    65    1
    47    39    38    2
    48    61    60    1
    49    38    37    1
    50    70    71    2
    51    70    69    1
    52    37    36    1
    53    72    69    1
    54    72    73    1
    55    68    69    1
    56    15    13   ar
    57    15    16   ar
    58    17    16    1
    59    13    11   ar
    60    16    14   ar
    61    33    35   ar
    62    33    31   ar
    63    35    34   ar
    64     4     3    2
    65    31    30   ar
    66    34    32   ar
    67    11    10    1
    68    11    12   ar
    69    14    12   ar
    70    24    22    1
    71     5     2    1
    72    30    32   ar
    73    30    29    1
    74     3     6   am
    75     3     2    1
    76     7    10    1
    77     7     6    1
    78     7     8    1
    79    22    23    1
    80    22    19    1
    81    18     8   am
    82    18    19    1
    83    21    20    2
    84     2     1    1
    85    29    26    1
    86     8     9    2
    87    19    20    1
    88    26    27    1
    89    26    25    1
    90    27    28    2
