@<TRIPOS>MOLECULE
tmp/1il9A00.pdb
 93 90 0 0 0
SMALL
GASTEIGER

@<TRIPOS>ATOM
      1  N         -4.7110    2.6630   12.6370 N.3    79  ALA79      -0.1231
      2  CA        -4.3000    1.2840   12.3740 C.3    79  ALA79       0.1694
      3  C         -2.8850    1.2380   11.7970 C.2    79  ALA79       0.2592
      4  O         -2.6110    0.5090   10.8450 O.2    79  ALA79      -0.2718
      5  CB        -5.2910    0.6050   11.4300 C.3    79  ALA79       0.0304
      6  N         -1.9930    2.0320   12.3790 N.am   80  TYR80      -0.1962
      7  CA        -0.6100    2.0940   11.9260 C.3    80  TYR80       0.1771
      8  C          0.2330    1.0640   12.6670 C.2    80  TYR80       0.2619
      9  O          0.1990    0.9950   13.8980 O.2    80  TYR80      -0.2715
     10  CB        -0.0420    3.4980   12.1660 C.3    80  TYR80       0.0574
     11  CG         1.2270    3.8020   11.4000 C.ar   80  TYR80      -0.0198
     12  CD1        2.4850    3.6160   11.9800 C.ar   80  TYR80      -0.0009
     13  CD2        1.1710    4.2810   10.0940 C.ar   80  TYR80      -0.0009
     14  CE1        3.6560    3.9010   11.2710 C.ar   80  TYR80       0.0417
     15  CE2        2.3310    4.5700    9.3800 C.ar   80  TYR80       0.0417
     16  CZ         3.5710    4.3780    9.9700 C.ar   80  TYR80       0.1957
     17  OH         4.7110    4.6630    9.2460 O.3    80  TYR80      -0.2866
     18  N          0.9730    0.2510   11.9190 N.am   81  VAL81      -0.1977
     19  CA         1.8360   -0.7580   12.5250 C.3    81  VAL81       0.1596
     20  C          3.1210   -0.0470   12.9460 C.2    81  VAL81       0.2287
     21  O          3.9090    0.3810   12.1020 O.2    81  VAL81      -0.2864
     22  CB         2.1790   -1.8980   11.5340 C.3    81  VAL81       0.0276
     23  CG1        3.0530   -2.9390   12.2150 C.3    81  VAL81       0.0022
     24  CG2        0.9090   -2.5460   11.0060 C.3    81  VAL81       0.0022
     25  N          9.6230    0.9230   14.4850 N.3    93  PHE93      -0.1241
     26  CA        10.0400    1.7440   13.3510 C.3    93  PHE93       0.1605
     27  C         10.4600    3.1280   13.8290 C.2    93  PHE93       0.2264
     28  O         10.0270    3.5820   14.8900 O.2    93  PHE93      -0.2867
     29  CB         8.9010    1.8830   12.3360 C.3    93  PHE93       0.0534
     30  CG         8.5110    0.5930   11.6750 C.ar   93  PHE93      -0.0203
     31  CD1        9.4180   -0.1000   10.8800 C.ar   93  PHE93      -0.0042
     32  CD2        7.2310    0.0730   11.8390 C.ar   93  PHE93      -0.0042
     33  CE1        9.0550   -1.2930   10.2550 C.ar   93  PHE93      -0.0003
     34  CE2        6.8580   -1.1160   11.2190 C.ar   93  PHE93      -0.0003
     35  CZ         7.7720   -1.7990   10.4260 C.ar   93  PHE93      -0.0000
     36  N          8.4860    2.3160    8.6500 N.3   121  GLY121     -0.1210
     37  CA         7.7120    1.2620    8.0190 C.3   121  GLY121      0.1956
     38  C          6.7790    1.7220    6.9160 C.2   121  GLY121      0.2612
     39  O          6.1050    0.9050    6.2930 O.2   121  GLY121     -0.2717
     40  N          6.6810    3.0320    6.7180 N.am  122  ASN122     -0.1960
     41  CA         5.8190    3.5920    5.6800 C.3   122  ASN122      0.1819
     42  C          6.1710    3.0490    4.2920 C.2   122  ASN122      0.2621
     43  O          7.3370    3.0610    3.8890 O.2   122  ASN122     -0.2715
     44  CB         5.8870    5.1230    5.7010 C.3   122  ASN122      0.1195
     45  CG         7.2950    5.6430    5.8970 C.2   122  ASN122      0.2630
     46  OD1        8.0800    5.7160    4.9540 O.2   122  ASN122     -0.2716
     47  ND2        7.6270    6.0000    7.1350 N.am  122  ASN122     -0.0877
     48  N          5.1510    2.5690    3.5800 N.am  123  TYR123     -0.1974
     49  CA         5.2930    1.9930    2.2390 C.3   123  TYR123      0.1639
     50  C          6.4420    2.5240    1.3870 C.2   123  TYR123      0.2290
     51  O          7.2910    1.7530    0.9380 O.2   123  TYR123     -0.2864
     52  CB         3.9860    2.1330    1.4520 C.3   123  TYR123      0.0560
     53  CG         2.8490    1.2810    1.9640 C.ar  123  TYR123     -0.0198
     54  CD1        3.0360   -0.0720    2.2450 C.ar  123  TYR123     -0.0009
     55  CD2        1.5810    1.8270    2.1690 C.ar  123  TYR123     -0.0009
     56  CE1        1.9920   -0.8600    2.7190 C.ar  123  TYR123      0.0417
     57  CE2        0.5280    1.0470    2.6440 C.ar  123  TYR123      0.0417
     58  CZ         0.7420   -0.2950    2.9160 C.ar  123  TYR123      0.1957
     59  OH        -0.2900   -1.0690    3.3920 O.3   123  TYR123     -0.2866
     60  N          1.0350   -5.6830    7.1720 N.3   172  ILE172     -0.1245
     61  CA         0.3510   -4.3930    7.1570 C.3   172  ILE172      0.1561
     62  C         -0.9410   -4.4430    6.3410 C.2   172  ILE172      0.2260
     63  O         -2.0160   -4.1180    6.8490 O.2   172  ILE172     -0.2867
     64  CB         1.2720   -3.2780    6.5960 C.3   172  ILE172      0.0252
     65  CG1        2.4480   -3.0410    7.5470 C.3   172  ILE172      0.0019
     66  CG2        0.4910   -1.9880    6.4000 C.3   172  ILE172      0.0019
     67  CD1        3.4850   -2.0740    7.0150 C.3   172  ILE172      0.0001
     68  N         -3.8950   -4.4780    8.8130 N.3   176  SER176     -0.1202
     69  CA        -4.3110   -3.0830    8.8780 C.3   176  SER176      0.2020
     70  C         -5.1720   -2.6370    7.6980 C.2   176  SER176      0.2618
     71  O         -6.3260   -2.2450    7.8830 O.2   176  SER176     -0.2717
     72  CB        -3.0860   -2.1810    9.0180 C.3   176  SER176      0.2103
     73  OG        -2.2950   -2.5790   10.1250 O.3   176  SER176     -0.2182
     74  N         -4.6260   -2.7100    6.4860 N.am  177  GLU177     -0.1979
     75  CA        -5.3650   -2.2970    5.2940 C.3   177  GLU177      0.1602
     76  C         -6.6800   -3.0560    5.1460 C.2   177  GLU177      0.2287
     77  O         -7.6890   -2.4820    4.7360 O.2   177  GLU177     -0.2864
     78  CB        -4.5130   -2.4660    4.0340 C.3   177  GLU177      0.0415
     79  CG        -3.2570   -1.5990    3.9900 C.3   177  GLU177      0.1163
     80  CD        -3.5460   -0.1050    3.9380 C.2   177  GLU177      0.3649
     81  OE1       -2.7540    0.6720    4.5110 O.co2 177  GLU177     -0.2457
     82  OE2       -4.5510    0.3000    3.3170 O.co2 177  GLU177     -0.2457
     83  N         -9.1540   -1.4160    7.2760 N.3   180  ARG180     -0.1245
     84  CA        -9.4950   -0.0960    6.7550 C.3   180  ARG180      0.1563
     85  C        -10.5620   -0.1790    5.6680 C.2   180  ARG180      0.2260
     86  O        -11.5010    0.6240    5.6450 O.2   180  ARG180     -0.2867
     87  CB        -8.2380    0.5990    6.2160 C.3   180  ARG180      0.0307
     88  CG        -7.2160    0.9370    7.2920 C.3   180  ARG180      0.0489
     89  CD        -5.7880    0.8200    6.7780 C.3   180  ARG180      0.2205
     90  NE        -5.2840    2.0300    6.1340 N.pl3 180  ARG180     -0.0865
     91  CZ        -4.5750    2.9650    6.7600 C.cat 180  ARG180      0.5346
     92  NH1       -4.2940    2.8390    8.0490 N.pl3 180  ARG180      0.1354
     93  NH2       -4.1030    4.0020    6.0890 N.pl3 180  ARG180      0.1354
@<TRIPOS>BOND
     1    51    50    2
     2    50    49    1
     3    52    53    1
     4    52    49    1
     5    53    55   ar
     6    53    54   ar
     7    55    57   ar
     8    49    48    1
     9    54    56   ar
    10    57    58   ar
    11    56    58   ar
    12    58    59    1
    13    82    80   ar
    14    48    42   am
    15    43    42    2
    16    80    79    1
    17    80    81   ar
    18    79    78    1
    19    78    75    1
    20    42    41    1
    21    77    76    2
    22    46    45    2
    23    76    75    1
    24    75    74    1
    25    86    85    2
    26    85    84    1
    27    41    44    1
    28    41    40    1
    29    44    45    1
    30    45    47   am
    31    93    91    1
    32    90    91    2
    33    90    89    1
    34    87    84    1
    35    87    88    1
    36    39    38    2
    37    62    63    2
    38    62    61    1
    39    66    64    1
    40    74    70   am
    41    64    61    1
    42    64    65    1
    43    40    38   am
    44    84    83    1
    45    91    92    1
    46    89    88    1
    47    38    37    1
    48    67    65    1
    49    61    60    1
    50    70    71    2
    51    70    69    1
    52    37    36    1
    53    68    69    1
    54    69    72    1
    55    72    73    1
    56    17    16    1
    57    15    16   ar
    58    15    13   ar
    59    16    14   ar
    60    13    11   ar
    61    33    35   ar
    62    33    31   ar
    63    35    34   ar
    64     4     3    2
    65    31    30   ar
    66    24    22    1
    67    34    32   ar
    68    14    12   ar
    69    11    12   ar
    70    11    10    1
    71     5     2    1
    72    22    23    1
    73    22    19    1
    74    30    32   ar
    75    30    29    1
    76     3     2    1
    77     3     6   am
    78    18    19    1
    79    18     8   am
    80     7    10    1
    81     7     6    1
    82     7     8    1
    83    21    20    2
    84    29    26    1
    85     2     1    1
    86    19    20    1
    87     8     9    2
    88    26    27    1
    89    26    25    1
    90    27    28    2
