@<TRIPOS>MOLECULE
tmp/1im0A04.pdb
 111 110 0 0 0
SMALL
GASTEIGER

@<TRIPOS>ATOM
      1  N         24.7490   11.8530   42.9290 N.3     6  ALA6       -0.1231
      2  CA        24.8330   12.6730   44.1430 C.3     6  ALA6        0.1694
      3  C         26.2590   13.0670   44.4760 C.2     6  ALA6        0.2592
      4  O         26.5840   14.2540   44.5490 O.2     6  ALA6       -0.2718
      5  CB        24.2230   11.9200   45.3300 C.3     6  ALA6        0.0304
      6  N         27.0980   12.0570   44.6840 N.am    7  VAL7       -0.1966
      7  CA        28.5000   12.2760   45.0090 C.3     7  VAL7        0.1727
      8  C         28.6110   13.2660   46.1600 C.2     7  VAL7        0.2616
      9  O         28.3960   14.4610   45.9840 O.2     7  VAL7       -0.2715
     10  CB        29.2660   12.8240   43.7880 C.3     7  VAL7        0.0290
     11  CG1       30.7370   12.9980   44.1280 C.3     7  VAL7        0.0023
     12  CG2       29.0960   11.8810   42.6070 C.3     7  VAL7        0.0023
     13  N         28.9360   12.7710   47.3460 N.am    8  ARG8       -0.1963
     14  CA        29.0230   13.6520   48.4960 C.3     8  ARG8        0.1729
     15  C         30.1420   14.6750   48.3020 C.2     8  ARG8        0.2617
     16  O         31.2400   14.3390   47.8510 O.2     8  ARG8       -0.2715
     17  CB        29.2560   12.8440   49.7690 C.3     8  ARG8        0.0348
     18  CG        30.5670   12.1240   49.8170 C.3     8  ARG8        0.0492
     19  CD        30.7330   11.4530   51.1550 C.3     8  ARG8        0.2205
     20  NE        31.9400   10.6360   51.2050 N.pl3   8  ARG8       -0.0865
     21  CZ        32.1520    9.6840   52.1060 C.cat   8  ARG8        0.5346
     22  NH1       31.2300    9.4330   53.0310 N.pl3   8  ARG8        0.1354
     23  NH2       33.2770    8.9820   52.0810 N.pl3   8  ARG8        0.1354
     24  N         29.8490   15.9270   48.6330 N.am    9  GLY9       -0.1940
     25  CA        30.8290   16.9790   48.4800 C.3     9  GLY9        0.2014
     26  C         30.7190   17.6980   47.1560 C.2     9  GLY9        0.2640
     27  O         31.2590   18.7840   46.9930 O.2     9  GLY9       -0.2714
     28  N         30.0150   17.1070   46.2040 N.am   10  SER10      -0.1935
     29  CA        29.9120   17.7060   44.8800 C.3    10  SER10       0.2055
     30  C         28.8550   18.7920   44.8190 C.2    10  SER10       0.2642
     31  O         27.6600   18.5010   44.7820 O.2    10  SER10      -0.2714
     32  CB        29.5920   16.6460   43.8280 C.3    10  SER10       0.2130
     33  OG        29.6040   17.2190   42.5340 O.3    10  SER10      -0.2179
     34  N         29.3060   20.0420   44.7950 N.am   11  ILE11      -0.1977
     35  CA        28.4080   21.1870   44.7320 C.3    11  ILE11       0.1596
     36  C         27.5740   21.1860   43.4610 C.2    11  ILE11       0.2287
     37  O         26.3480   21.1380   43.5200 O.2    11  ILE11      -0.2864
     38  CB        29.1880   22.5000   44.7770 C.3    11  ILE11       0.0276
     39  CG1       29.9270   22.6200   46.1110 C.3    11  ILE11       0.0022
     40  CG2       28.2520   23.6620   44.5440 C.3    11  ILE11       0.0022
     41  CD1       30.8910   23.7770   46.1630 C.3    11  ILE11       0.0001
     42  N         25.0380   18.3860   42.8950 N.3    14  ASN14      -0.1240
     43  CA        23.9450   18.5930   43.8200 C.3    14  ASN14       0.1653
     44  C         23.0440   19.6980   43.2860 C.2    14  ASN14       0.2266
     45  O         21.8280   19.5930   43.3540 O.2    14  ASN14      -0.2867
     46  CB        24.5060   18.9470   45.2000 C.3    14  ASN14       0.1155
     47  CG        23.4400   18.9930   46.2790 C.2    14  ASN14       0.2627
     48  OD1       22.5920   18.1130   46.3740 O.2    14  ASN14      -0.2716
     49  ND2       23.4940   20.0210   47.1120 N.am   14  ASN14      -0.0877
     50  N         23.1710   24.1940   49.2770 N.3    27  PRO27      -0.2102
     51  CA        24.3490   24.7230   49.9500 C.3    27  PRO27       0.1504
     52  C         25.4620   24.8670   48.9090 C.2    27  PRO27       0.2576
     53  O         25.4460   24.1980   47.8720 O.2    27  PRO27      -0.2718
     54  CB        24.6580   23.6530   50.9950 C.3    27  PRO27       0.0282
     55  CG        24.2380   22.4140   50.3250 C.3    27  PRO27       0.0208
     56  CD        22.9030   22.8150   49.7190 C.3    27  PRO27       0.0893
     57  N         26.4050   25.7610   49.1870 N.am   28  TYR28      -0.1963
     58  CA        27.6100   25.9240   48.3780 C.3    28  TYR28       0.1771
     59  C         28.8090   25.5120   49.2390 C.2    28  TYR28       0.2619
     60  O         29.3130   24.3930   49.1320 O.2    28  TYR28      -0.2715
     61  CB        27.7650   27.3820   47.9650 C.3    28  TYR28       0.0574
     62  CG        28.8950   27.6030   47.0010 C.ar   28  TYR28      -0.0198
     63  CD1       28.8010   27.1620   45.6850 C.ar   28  TYR28      -0.0009
     64  CD2       30.0670   28.2340   47.4050 C.ar   28  TYR28      -0.0009
     65  CE1       29.8450   27.3470   44.7960 C.ar   28  TYR28       0.0417
     66  CE2       31.1170   28.4220   46.5220 C.ar   28  TYR28       0.0417
     67  CZ        30.9980   27.9810   45.2200 C.ar   28  TYR28       0.1957
     68  OH        32.0060   28.1980   44.3260 O.3    28  TYR28      -0.2866
     69  N         29.2520   26.4270   50.1000 N.am   29  ASP29      -0.1971
     70  CA        30.2970   26.1270   51.0730 C.3    29  ASP29       0.1709
     71  C         29.6140   25.6180   52.3390 C.2    29  ASP29       0.2293
     72  O         28.4530   25.2040   52.3040 O.2    29  ASP29      -0.2864
     73  CB        31.1280   27.3710   51.4060 C.3    29  ASP29       0.1436
     74  CG        32.5380   27.0290   51.8450 C.2    29  ASP29       0.3671
     75  OD1       32.7290   26.0010   52.5360 O.co2  29  ASP29      -0.2456
     76  OD2       33.4620   27.7910   51.5000 O.co2  29  ASP29      -0.2456
     77  N         26.1490   21.5730   56.8700 N.3   259  ASN259     -0.1225
     78  CA        26.9070   20.7340   55.9520 C.3   259  ASN259      0.1785
     79  C         28.3950   20.9740   56.0920 C.2   259  ASN259      0.2597
     80  O         28.8200   22.0880   56.3790 O.2   259  ASN259     -0.2718
     81  CB        26.4930   21.0140   54.5120 C.3   259  ASN259      0.1169
     82  CG        26.7610   22.4440   54.1000 C.2   259  ASN259      0.2627
     83  OD1       26.1440   23.3780   54.6110 O.2   259  ASN259     -0.2716
     84  ND2       27.6950   22.6270   53.1740 N.am  259  ASN259     -0.0877
     85  N         29.1870   19.9260   55.8930 N.am  260  ASP260     -0.1960
     86  CA        30.6400   20.0560   55.8520 C.3   260  ASP260      0.1840
     87  C         31.0670   19.9390   54.3750 C.2   260  ASP260      0.2622
     88  O         30.2040   19.8140   53.4990 O.2   260  ASP260     -0.2715
     89  CB        31.2740   18.9510   56.6820 C.3   260  ASP260      0.1450
     90  CG        32.5520   19.3910   57.3350 C.2   260  ASP260      0.3671
     91  OD1       33.3010   20.1570   56.7010 O.co2 260  ASP260     -0.2456
     92  OD2       32.8130   18.9680   58.4790 O.co2 260  ASP260     -0.2456
     93  N         32.3630   19.9810   54.0680 N.am  261  LEU261     -0.1963
     94  CA        32.7430   19.9500   52.6530 C.3   261  LEU261      0.1728
     95  C         32.2360   18.6950   51.9690 C.2   261  LEU261      0.2616
     96  O         32.1200   18.6500   50.7440 O.2   261  LEU261     -0.2715
     97  CB        34.2560   20.0750   52.4460 C.3   261  LEU261      0.0311
     98  CG        35.2380   19.6010   53.5120 C.3   261  LEU261      0.0022
     99  CD1       34.7760   18.3140   54.1740 C.3   261  LEU261      0.0001
    100  CD2       36.5950   19.4260   52.8430 C.3   261  LEU261      0.0001
    101  N         31.9200   17.6820   52.7640 N.am  262  PHE262     -0.1974
    102  CA        31.2870   16.4870   52.2380 C.3   262  PHE262      0.1639
    103  C         31.0320   15.5170   53.3810 C.2   262  PHE262      0.2290
    104  O         30.8380   14.3090   53.1230 O.2   262  PHE262     -0.2864
    105  CB        32.1860   15.8450   51.1830 C.3   262  PHE262      0.0560
    106  CG        33.3580   15.0970   51.7480 C.ar  262  PHE262     -0.0200
    107  CD1       34.0190   15.5560   52.8800 C.ar  262  PHE262     -0.0042
    108  CD2       33.8060   13.9310   51.1390 C.ar  262  PHE262     -0.0042
    109  CE1       35.1110   14.8660   53.3990 C.ar  262  PHE262     -0.0003
    110  CE2       34.8930   13.2370   51.6440 C.ar  262  PHE262     -0.0003
    111  CZ        35.5480   13.7030   52.7790 C.ar  262  PHE262     -0.0000
@<TRIPOS>BOND
     1    33    32    1
     2    12    10    1
     3    42    43    1
     4     1     2    1
     5    44    45    2
     6    44    43    1
     7    36    37    2
     8    36    35    1
     9    10    11    1
    10    10     7    1
    11    43    46    1
    12    32    29    1
    13     2     3    1
    14     2     5    1
    15    68    67    1
    16     3     4    2
    17     3     6   am
    18    40    38    1
    19     6     7    1
    20    35    38    1
    21    35    34    1
    22    38    39    1
    23    31    30    2
    24    34    30   am
    25    65    67   ar
    26    65    63   ar
    27    30    29    1
    28    29    28    1
    29     7     8    1
    30    46    47    1
    31    67    66   ar
    32    63    62   ar
    33     9     8    2
    34    39    41    1
    35     8    13   am
    36    28    26   am
    37    47    48    2
    38    47    49   am
    39    66    64   ar
    40    27    26    2
    41    62    64   ar
    42    62    61    1
    43    26    25    1
    44    13    14    1
    45    16    15    2
    46    53    52    2
    47    61    58    1
    48    15    14    1
    49    15    24   am
    50    58    57    1
    51    58    59    1
    52    25    24    1
    53    14    17    1
    54    52    57   am
    55    52    51    1
    56    60    59    2
    57    59    69   am
    58    50    56    1
    59    50    51    1
    60    56    55    1
    61    17    18    1
    62    18    19    1
    63    51    54    1
    64    69    70    1
    65    55    54    1
    66    96    95    2
    67    70    73    1
    68    70    71    1
    69   108   110   ar
    70   108   106   ar
    71    19    20    1
    72   105   106    1
    73   105   102    1
    74    20    21    2
    75    73    74    1
    76    76    74   ar
    77   110   111   ar
    78   106   107   ar
    79    74    75   ar
    80    95    94    1
    81    95   101   am
    82    23    21    1
    83    21    22    1
    84   102   101    1
    85   102   103    1
    86    72    71    2
    87    97    94    1
    88    97    98    1
    89    94    93    1
    90   111   109   ar
    91   100    98    1
    92   107   109   ar
    93   104   103    2
    94    84    82   am
    95    88    87    2
    96    98    99    1
    97    93    87   am
    98    82    81    1
    99    82    83    2
   100    87    86    1
   101    81    78    1
   102    86    85    1
   103    86    89    1
   104    85    79   am
   105    78    79    1
   106    78    77    1
   107    79    80    2
   108    89    90    1
   109    91    90   ar
   110    90    92   ar
