@<TRIPOS>MOLECULE
tmp/1im8A00.pdb
 216 208 0 0 0
SMALL
GASTEIGER

@<TRIPOS>ATOM
      1  N          4.8140   27.4380   -2.2170 N.3     3  PHE3       -0.1241
      2  CA         3.7570   26.8170   -1.4230 C.3     3  PHE3        0.1605
      3  C          2.7460   27.8970   -0.9680 C.2     3  PHE3        0.2264
      4  O          2.7640   28.3390    0.1980 O.2     3  PHE3       -0.2867
      5  CB         4.3590   26.0840   -0.2090 C.3     3  PHE3        0.0534
      6  CG         5.2620   24.9420   -0.5770 C.ar    3  PHE3       -0.0203
      7  CD1        6.6160   25.1440   -0.7850 C.ar    3  PHE3       -0.0042
      8  CD2        4.7420   23.6500   -0.7500 C.ar    3  PHE3       -0.0042
      9  CE1        7.4520   24.0670   -1.1630 C.ar    3  PHE3       -0.0003
     10  CE2        5.5530   22.5810   -1.1250 C.ar    3  PHE3       -0.0003
     11  CZ         6.9030   22.7740   -1.3320 C.ar    3  PHE3       -0.0000
     12  N         -2.7000   20.1350   -1.6980 N.3    11  PHE11      -0.1241
     13  CA        -1.5750   19.3000   -1.2390 C.3    11  PHE11       0.1605
     14  C         -1.8150   17.8000   -0.9470 C.2    11  PHE11       0.2264
     15  O         -1.0910   16.9320   -1.4660 O.2    11  PHE11      -0.2867
     16  CB        -0.8910   19.9360   -0.0180 C.3    11  PHE11       0.0534
     17  CG         0.3650   19.2040    0.4190 C.ar   11  PHE11      -0.0203
     18  CD1        1.5780   19.4350   -0.2310 C.ar   11  PHE11      -0.0042
     19  CD2        0.3240   18.2310    1.4550 C.ar   11  PHE11      -0.0042
     20  CE1        2.7360   18.7090    0.1310 C.ar   11  PHE11      -0.0003
     21  CE2        1.4880   17.4940    1.8270 C.ar   11  PHE11      -0.0003
     22  CZ         2.6900   17.7410    1.1610 C.ar   11  PHE11      -0.0000
     23  N          0.2350   15.2230   -3.4430 N.3    14  ILE14      -0.1245
     24  CA         1.2430   14.2980   -2.9400 C.3    14  ILE14       0.1561
     25  C          0.8060   12.8230   -3.0250 C.2    14  ILE14       0.2260
     26  O          1.6340   11.9370   -3.1890 O.2    14  ILE14      -0.2867
     27  CB         1.6810   14.7100   -1.4860 C.3    14  ILE14       0.0252
     28  CG1        3.0720   14.1640   -1.1970 C.3    14  ILE14       0.0019
     29  CG2        0.6740   14.2290   -0.4670 C.3    14  ILE14       0.0019
     30  CD1        3.7440   14.8020    0.0120 C.3    14  ILE14       0.0001
     31  N          3.3820    6.9770   -0.3510 N.3    21  TYR21      -0.1241
     32  CA         3.2280    8.0840    0.5980 C.3    21  TYR21       0.1605
     33  C          2.4620    7.7360    1.8520 C.2    21  TYR21       0.2264
     34  O          2.8970    7.9670    2.9660 O.2    21  TYR21      -0.2867
     35  CB         2.5000    9.2510   -0.0610 C.3    21  TYR21       0.0534
     36  CG         2.2300   10.3540    0.9210 C.ar   21  TYR21      -0.0201
     37  CD1        3.2370   11.2590    1.2830 C.ar   21  TYR21      -0.0009
     38  CD2        0.9810   10.4600    1.5420 C.ar   21  TYR21      -0.0009
     39  CE1        2.9970   12.2330    2.2480 C.ar   21  TYR21       0.0417
     40  CE2        0.7170   11.4250    2.4900 C.ar   21  TYR21       0.0417
     41  CZ         1.7320   12.3140    2.8430 C.ar   21  TYR21       0.1957
     42  OH         1.4540   13.3030    3.7760 O.3    21  TYR21      -0.2866
     43  N          3.1810    7.2740    6.0590 N.3    25  ILE25      -0.1245
     44  CA         2.4880    8.0180    7.0900 C.3    25  ILE25       0.1561
     45  C          2.0260    7.0170    8.1900 C.2    25  ILE25       0.2260
     46  O          2.2090    7.2800    9.3810 O.2    25  ILE25      -0.2867
     47  CB         1.2800    8.8350    6.4630 C.3    25  ILE25       0.0252
     48  CG1        1.8100    9.9360    5.5290 C.3    25  ILE25       0.0019
     49  CG2        0.4700    9.5060    7.5510 C.3    25  ILE25       0.0019
     50  CD1        2.6630   11.0310    6.2700 C.3    25  ILE25       0.0001
     51  N          8.2080   17.8920   13.7310 N.3    43  ASP43      -0.1239
     52  CA         7.8030   17.4750   12.4010 C.3    43  ASP43       0.1674
     53  C          8.2780   18.6480   11.5710 C.2    43  ASP43       0.2266
     54  O          7.6460   19.7030   11.5790 O.2    43  ASP43      -0.2867
     55  CB         6.3080   17.3310   12.3210 C.3    43  ASP43       0.1410
     56  CG         5.8450   16.8910   10.9430 C.2    43  ASP43       0.3668
     57  OD1        6.7320   16.6950   10.0880 O.co2  43  ASP43      -0.2456
     58  OD2        4.6150   16.7640   10.7130 O.co2  43  ASP43      -0.2456
     59  N          8.9000   20.8060    8.3360 N.3    45  GLY45      -0.1210
     60  CA         8.3020   21.0450    7.0340 C.3    45  GLY45       0.1956
     61  C          7.0530   20.2050    7.2080 C.2    45  GLY45       0.2612
     62  O          6.8250   19.1710    6.5420 O.2    45  GLY45      -0.2717
     63  N          6.2390   20.6140    8.1570 N.am   46  CYS46      -0.1956
     64  CA         5.0590   19.8110    8.4320 C.3    46  CYS46       0.1843
     65  C          3.8600   19.8570    7.5140 C.2    46  CYS46       0.2626
     66  O          3.0030   18.9980    7.6280 O.2    46  CYS46      -0.2714
     67  CB         4.5940   20.0790    9.8370 C.3    46  CYS46       0.0997
     68  SG         4.0060   21.7380   10.0990 S.3    46  CYS46      -0.0797
     69  N          3.7990   20.8280    6.5980 N.am   47  SER47      -0.1936
     70  CA         2.6710   21.0060    5.6630 C.3    47  SER47       0.2055
     71  C          1.2690   20.9890    6.2800 C.2    47  SER47       0.2642
     72  O          0.9350   21.8420    7.1260 O.2    47  SER47      -0.2714
     73  CB         2.7280   19.9650    4.5460 C.3    47  SER47       0.2130
     74  OG         4.0170   19.8960    3.9260 O.3    47  SER47      -0.2179
     75  N          0.4320   20.0310    5.8790 N.am   48  ARG48      -0.1977
     76  CA        -0.9300   19.9360    6.4350 C.3    48  ARG48       0.1597
     77  C         -0.9800   19.1920    7.7770 C.2    48  ARG48       0.2287
     78  O         -2.0100   19.1450    8.4510 O.2    48  ARG48      -0.2864
     79  CB        -1.8300   19.2280    5.4370 C.3    48  ARG48       0.0334
     80  CG        -2.1380   20.0450    4.2080 C.3    48  ARG48       0.0492
     81  CD        -3.1440   21.1170    4.5500 C.3    48  ARG48       0.2205
     82  NE        -4.0810   21.2890    3.4420 N.pl3  48  ARG48      -0.0865
     83  CZ        -5.1830   20.5680    3.2260 C.cat  48  ARG48       0.5346
     84  NH1       -5.5600   19.5890    4.0460 N.pl3  48  ARG48       0.1354
     85  NH2       -5.8920   20.8140    2.1370 N.pl3  48  ARG48       0.1354
     86  N          0.0850   15.7010    8.2660 N.3    50  ALA50      -0.1231
     87  CA        -0.2800   14.2880    8.1250 C.3    50  ALA50       0.1694
     88  C          0.6150   13.4090    8.9860 C.2    50  ALA50       0.2591
     89  O          0.1260   12.5490    9.7070 O.2    50  ALA50      -0.2718
     90  CB        -0.1710   13.8560    6.6520 C.3    50  ALA50       0.0304
     91  N          1.9150   13.6520    8.9300 N.am   51  ALA51      -0.1980
     92  CA         2.8820   12.8950    9.7320 C.3    51  ALA51       0.1597
     93  C          2.6760   13.2560   11.1680 C.2    51  ALA51       0.2287
     94  O          2.8020   12.4020   12.0480 O.2    51  ALA51      -0.2864
     95  CB         4.3220   13.2390    9.3610 C.3    51  ALA51       0.0319
     96  N          6.8200   22.4980   12.2440 N.3    69  ILE69      -0.1231
     97  CA         7.3380   23.7450   11.6690 C.3    69  ILE69       0.1692
     98  C          7.2480   23.7480   10.1460 C.2    69  ILE69       0.2592
     99  O          7.5870   22.7410    9.5030 O.2    69  ILE69      -0.2718
    100  CB         8.8190   23.9530   12.0560 C.3    69  ILE69       0.0266
    101  CG1        8.9230   24.0600   13.5640 C.3    69  ILE69       0.0019
    102  CG2        9.4030   25.2140   11.4200 C.3    69  ILE69       0.0020
    103  CD1       10.3310   24.1190   14.0280 C.3    69  ILE69       0.0001
    104  N          6.7670   24.8590    9.5740 N.am   70  ASP70      -0.1960
    105  CA         6.6750   25.0240    8.1100 C.3    70  ASP70       0.1840
    106  C          6.7720   26.5410    7.8500 C.2    70  ASP70       0.2622
    107  O          6.0310   27.3300    8.4650 O.2    70  ASP70      -0.2715
    108  CB         5.3450   24.4990    7.5650 C.3    70  ASP70       0.1450
    109  CG         5.4040   24.1660    6.0720 C.2    70  ASP70       0.3671
    110  OD1        5.3660   22.9550    5.7530 O.co2  70  ASP70      -0.2456
    111  OD2        5.4720   25.0920    5.2090 O.co2  70  ASP70      -0.2456
    112  N          7.6780   26.9510    6.9550 N.am   71  ASN71      -0.1958
    113  CA         7.8370   28.3790    6.6820 C.3    71  ASN71       0.1819
    114  C          6.7760   29.0500    5.7570 C.2    71  ASN71       0.2622
    115  O          6.8240   30.2660    5.4600 O.2    71  ASN71      -0.2715
    116  CB         9.2600   28.6650    6.1880 C.3    71  ASN71       0.1195
    117  CG         9.5230   28.1880    4.7590 C.2    71  ASN71       0.2630
    118  OD1       10.5310   28.5670    4.1930 O.2    71  ASN71      -0.2716
    119  ND2        8.6370   27.3630    4.1790 N.am   71  ASN71      -0.0877
    120  N          5.8130   28.2590    5.3030 N.am   72  SER72      -0.1950
    121  CA         4.7500   28.8040    4.4850 C.3    72  SER72       0.1924
    122  C          3.5450   29.0900    5.3810 C.2    72  SER72       0.2314
    123  O          3.0280   28.1840    6.0440 O.2    72  SER72      -0.2863
    124  CB         4.3280   27.8220    3.4010 C.3    72  SER72       0.2116
    125  OG         2.9650   28.1110    3.0940 O.3    72  SER72      -0.2180
    126  N          8.2140   29.0630   10.6860 N.3    96  ASN96      -0.1225
    127  CA         9.6030   29.4850   10.5910 C.3    96  ASN96       0.1785
    128  C         10.3080   28.6560    9.5710 C.2    96  ASN96       0.2597
    129  O          9.7700   27.7400    8.9740 O.2    96  ASN96      -0.2718
    130  CB        10.3650   29.3250   11.9060 C.3    96  ASN96       0.1169
    131  CG         9.8920   30.2700   12.9840 C.2    96  ASN96       0.2627
    132  OD1        9.7340   31.4640   12.7550 O.2    96  ASN96      -0.2716
    133  ND2        9.6810   29.7400   14.1810 N.am   96  ASN96      -0.0877
    134  N         11.5510   29.0040    9.3810 N.am   97  ASP97      -0.1960
    135  CA        12.3780   28.2810    8.4760 C.3    97  ASP97       0.1840
    136  C         13.1720   27.2750    9.3380 C.2    97  ASP97       0.2622
    137  O         13.9140   27.6710   10.2380 O.2    97  ASP97      -0.2715
    138  CB        13.2910   29.2740    7.7990 C.3    97  ASP97       0.1450
    139  CG        14.2370   28.6160    6.8750 C.2    97  ASP97       0.3671
    140  OD1       14.4640   29.1540    5.7760 O.co2  97  ASP97      -0.2456
    141  OD2       14.7570   27.5570    7.2520 O.co2  97  ASP97      -0.2456
    142  N         12.9980   25.9890    9.0740 N.am   98  ILE98      -0.1963
    143  CA        13.6940   24.9110    9.8050 C.3    98  ILE98       0.1727
    144  C         15.1760   25.1390   10.0680 C.2    98  ILE98       0.2616
    145  O         15.7530   24.5430   10.9970 O.2    98  ILE98      -0.2715
    146  CB        13.6900   23.5920    9.0280 C.3    98  ILE98       0.0290
    147  CG1       12.2970   23.1660    8.6390 C.3    98  ILE98       0.0022
    148  CG2       14.2540   22.4900    9.8800 C.3    98  ILE98       0.0023
    149  CD1       12.4060   21.9500    7.6890 C.3    98  ILE98       0.0001
    150  N         15.8370   25.9510    9.2490 N.am   99  ARG99      -0.1977
    151  CA        17.2560   26.1220    9.4950 C.3    99  ARG99       0.1597
    152  C         17.5890   26.9590   10.7200 C.2    99  ARG99       0.2287
    153  O         18.7150   26.9200   11.1970 O.2    99  ARG99      -0.2864
    154  CB        17.9250   26.6990    8.2690 C.3    99  ARG99       0.0334
    155  CG        18.1860   25.6400    7.1990 C.3    99  ARG99       0.0492
    156  CD        18.4090   26.2820    5.8190 C.3    99  ARG99       0.2205
    157  NE        17.1700   26.9180    5.3750 N.pl3  99  ARG99      -0.0865
    158  CZ        17.0320   27.5560    4.2190 C.cat  99  ARG99       0.5346
    159  NH1       18.0490   27.6590    3.3730 N.pl3  99  ARG99       0.1354
    160  NH2       15.8710   28.0790    3.8950 N.pl3  99  ARG99       0.1354
    161  N         10.0030   14.6280    6.5670 N.3   111  ASN111     -0.1225
    162  CA         9.2750   13.8370    5.5890 C.3   111  ASN111      0.1785
    163  C          9.1840   14.5290    4.2680 C.2   111  ASN111      0.2597
    164  O          8.2350   15.2490    4.0300 O.2   111  ASN111     -0.2718
    165  CB         7.8530   13.4930    6.1540 C.3   111  ASN111      0.1169
    166  CG         7.2370   12.2190    5.5360 C.2   111  ASN111      0.2627
    167  OD1        7.9300   11.2080    5.3470 O.2   111  ASN111     -0.2716
    168  ND2        5.9230   12.2590    5.2340 N.am  111  ASN111     -0.0877
    169  N         10.1800   14.3090    3.4080 N.am  112  PHE112     -0.1962
    170  CA        10.2370   14.8910    2.0600 C.3   112  PHE112      0.1771
    171  C         10.4730   16.3670    2.1240 C.2   112  PHE112      0.2620
    172  O          9.9080   17.1360    1.3860 O.2   112  PHE112     -0.2715
    173  CB         8.9310   14.6140    1.3060 C.3   112  PHE112      0.0574
    174  CG         8.7040   13.1550    1.0160 C.ar  112  PHE112     -0.0200
    175  CD1        7.6920   12.4480    1.6680 C.ar  112  PHE112     -0.0042
    176  CD2        9.5720   12.4700    0.1510 C.ar  112  PHE112     -0.0042
    177  CE1        7.5460   11.0960    1.4910 C.ar  112  PHE112     -0.0003
    178  CE2        9.4440   11.0830   -0.0500 C.ar  112  PHE112     -0.0003
    179  CZ         8.4390   10.3960    0.6200 C.ar  112  PHE112     -0.0000
    180  N         11.3150   16.7760    3.0350 N.am  113  THR113     -0.1951
    181  CA        11.5390   18.1850    3.2040 C.3   113  THR113      0.1897
    182  C         12.9660   18.6320    2.9320 C.2   113  THR113      0.2313
    183  O         13.1970   19.7110    2.4170 O.2   113  THR113     -0.2863
    184  CB        11.1510   18.5980    4.6430 C.3   113  THR113      0.1794
    185  OG1        9.7460   18.3590    4.8560 O.3   113  THR113     -0.2208
    186  CG2       11.4340   20.0430    4.8380 C.3   113  THR113      0.0378
    187  N         14.2370   20.1260   -0.2670 N.3   116  PHE116     -0.1227
    188  CA        13.8770   21.5100   -0.5410 C.3   116  PHE116      0.1736
    189  C         14.8530   22.5350    0.1030 C.2   116  PHE116      0.2595
    190  O         14.6810   23.7530   -0.0390 O.2   116  PHE116     -0.2718
    191  CB        12.4350   21.7990   -0.0700 C.3   116  PHE116      0.0547
    192  CG        11.3510   21.1230   -0.9010 C.ar  116  PHE116     -0.0202
    193  CD1       10.8730   19.8540   -0.5800 C.ar  116  PHE116     -0.0042
    194  CD2       10.7940   21.7600   -1.9970 C.ar  116  PHE116     -0.0042
    195  CE1        9.8590   19.2460   -1.3470 C.ar  116  PHE116     -0.0003
    196  CE2        9.7730   21.1410   -2.7630 C.ar  116  PHE116     -0.0003
    197  CZ         9.3110   19.8980   -2.4450 C.ar  116  PHE116     -0.0000
    198  N         15.8670   22.0510    0.8130 N.am  117  LEU117     -0.1980
    199  CA        16.8570   22.9240    1.4310 C.3   117  LEU117      0.1596
    200  C         18.0370   22.9910    0.4810 C.2   117  LEU117      0.2287
    201  O         18.2040   22.1020   -0.3570 O.2   117  LEU117     -0.2864
    202  CB        17.3510   22.3430    2.7680 C.3   117  LEU117      0.0297
    203  CG        16.7600   22.8720    4.0880 C.3   117  LEU117      0.0022
    204  CD1       15.2810   22.6430    4.0660 C.3   117  LEU117      0.0001
    205  CD2       17.3990   22.1900    5.3300 C.3   117  LEU117      0.0001
    206  N          4.5870   21.9580  -10.5560 N.3   178  ARG178     -0.1245
    207  CA         5.1190   20.9520   -9.6610 C.3   178  ARG178      0.1563
    208  C          6.1320   20.0830  -10.4070 C.2   178  ARG178      0.2260
    209  O          7.2340   19.8640   -9.9240 O.2   178  ARG178     -0.2867
    210  CB         3.9890   20.0600   -9.1470 C.3   178  ARG178      0.0307
    211  CG         4.0460   19.7840   -7.6730 C.3   178  ARG178      0.0489
    212  CD         5.3420   19.1350   -7.2290 C.3   178  ARG178      0.2205
    213  NE         5.4530   19.2340   -5.7810 N.pl3 178  ARG178     -0.0865
    214  CZ         6.1960   18.4350   -5.0240 C.cat 178  ARG178      0.5346
    215  NH1        6.9100   17.4570   -5.5710 N.pl3 178  ARG178      0.1354
    216  NH2        6.2220   18.6170   -3.7150 N.pl3 178  ARG178      0.1354
@<TRIPOS>BOND
     1   206   207    1
     2   208   209    2
     3   208   207    1
     4   207   210    1
     5   210   211    1
     6   211   212    1
     7   212   213    1
     8   213   214    2
     9   215   214    1
    10   214   216    1
    11    23    24    1
    12    26    25    2
    13    25    24    1
    14    24    27    1
    15   196   197   ar
    16   196   194   ar
    17   197   195   ar
    18     1     2    1
    19   194   192   ar
    20    12    13    1
    21    27    28    1
    22    27    29    1
    23    15    14    2
    24     2     3    1
    25     2     5    1
    26   195   193   ar
    27    11     9   ar
    28    11    10   ar
    29    13    14    1
    30    13    16    1
    31    28    30    1
    32     9     7   ar
    33    10     8   ar
    34     3     4    2
    35   192   193   ar
    36   192   191    1
    37     7     6   ar
    38     8     6   ar
    39     6     5    1
    40   188   187    1
    41   188   191    1
    42   188   189    1
    43   201   200    2
    44    31    32    1
    45    18    20   ar
    46    18    17   ar
    47    35    32    1
    48    35    36    1
    49   178   176   ar
    50   178   179   ar
    51   190   189    2
    52    16    17    1
    53   189   198   am
    54    20    22   ar
    55   176   174   ar
    56    17    19   ar
    57   200   199    1
    58    32    33    1
    59   179   177   ar
    60   198   199    1
    61    36    37   ar
    62    36    38   ar
    63   174   173    1
    64   174   175   ar
    65    22    21   ar
    66    37    39   ar
    67   173   170    1
    68   172   171    2
    69   199   202    1
    70    19    21   ar
    71   177   175   ar
    72    38    40   ar
    73    33    34    2
    74   170   171    1
    75   170   169    1
    76   171   180   am
    77    85    83    1
    78    39    41   ar
    79   183   182    2
    80    40    41   ar
    81   202   203    1
    82    41    42    1
    83   182   181    1
    84   180   181    1
    85   125   124    1
    86   181   184    1
    87    83    82    2
    88    83    84    1
    89   159   158    1
    90   124   121    1
    91   169   163   am
    92    82    81    1
    93   160   158    1
    94    74    73    1
    95   164   163    2
    96   204   203    1
    97   203   205    1
    98   119   117   am
    99   118   117    2
   100    80    81    1
   101    80    79    1
   102   158   157    2
   103   163   162    1
   104   121   120    1
   105   121   122    1
   106    73    70    1
   107   184   186    1
   108   184   185    1
   109   117   116    1
   110   111   109   ar
   111   168   166   am
   112   120   114   am
   113   167   166    2
   114   157   156    1
   115   122   123    2
   116    79    76    1
   117   115   114    2
   118    48    50    1
   119    48    47    1
   120   166   165    1
   121   162   165    1
   122   162   161    1
   123    70    71    1
   124    70    69    1
   125   110   109   ar
   126   114   113    1
   127   140   139   ar
   128   156   155    1
   129    75    71   am
   130    75    76    1
   131    43    44    1
   132   109   108    1
   133   116   113    1
   134    71    72    2
   135    76    77    1
   136    47    44    1
   137    47    49    1
   138    62    61    2
   139    69    65   am
   140    90    87    1
   141   113   112    1
   142   139   141   ar
   143   139   138    1
   144   112   106   am
   145    60    61    1
   146    60    59    1
   147    44    45    1
   148   155   154    1
   149    61    63   am
   150    65    66    2
   151    65    64    1
   152   108   105    1
   153   149   147    1
   154    77    78    2
   155   138   135    1
   156   106   105    1
   157   106   107    2
   158   105   104    1
   159    87    86    1
   160    87    88    1
   161    63    64    1
   162    45    46    2
   163   154   151    1
   164    64    67    1
   165   135   136    1
   166   135   134    1
   167   147   146    1
   168    91    88   am
   169    91    92    1
   170   129   128    2
   171    88    89    2
   172   146   143    1
   173   146   148    1
   174   142   136   am
   175   142   143    1
   176   150   151    1
   177   150   144   am
   178   136   137    2
   179    95    92    1
   180   134   128   am
   181   151   152    1
   182    99    98    2
   183   128   127    1
   184   104    98   am
   185    92    93    1
   186   143   144    1
   187    67    68    1
   188   144   145    2
   189    57    56   ar
   190    98    97    1
   191   127   126    1
   192   127   130    1
   193    58    56   ar
   194   152   153    2
   195    56    55    1
   196    93    94    2
   197   102   100    1
   198    53    54    2
   199    53    52    1
   200    97   100    1
   201    97    96    1
   202   130   131    1
   203   100   101    1
   204    55    52    1
   205    52    51    1
   206   132   131    2
   207   131   133   am
   208   101   103    1
