@<TRIPOS>MOLECULE
tmp/1imaA00.pdb
 155 148 0 0 0
SMALL
GASTEIGER

@<TRIPOS>ATOM
      1  N          0.4450   48.2870    5.7370 N.3    37  ASP37      -0.1225
      2  CA         1.6230   49.1410    5.6240 C.3    37  ASP37       0.1805
      3  C          1.2820   50.3320    4.7170 C.2    37  ASP37       0.2597
      4  O          1.3160   50.2070    3.4950 O.2    37  ASP37      -0.2718
      5  CB         2.7910   48.3310    5.0460 C.3    37  ASP37       0.1424
      6  CG         4.0980   49.1100    5.0160 C.2    37  ASP37       0.3668
      7  OD1        4.2760   50.0450    5.8380 O.co2  37  ASP37      -0.2456
      8  OD2        4.9690   48.7650    4.1810 O.co2  37  ASP37      -0.2456
      9  N          0.9220   51.4600    5.3300 N.am   38  LEU38      -0.1979
     10  CA         0.2780   52.5670    4.6280 C.3    38  LEU38       0.1596
     11  C          1.2070   53.7410    4.3600 C.2    38  LEU38       0.2287
     12  O          2.2390   53.9000    5.0090 O.2    38  LEU38      -0.2864
     13  CB        -0.9490   53.0580    5.4040 C.3    38  LEU38       0.0297
     14  CG        -1.7900   51.9930    6.1020 C.3    38  LEU38       0.0022
     15  CD1       -2.9290   52.6360    6.8750 C.3    38  LEU38       0.0001
     16  CD2       -2.3190   51.0240    5.0860 C.3    38  LEU38       0.0001
     17  N         12.4220   57.4460    5.4750 N.3    66  GLU66      -0.1245
     18  CA        11.5960   56.2740    5.2250 C.3    66  GLU66       0.1567
     19  C         11.1540   56.1620    3.7570 C.2    66  GLU66       0.2260
     20  O         11.3330   55.1140    3.1370 O.2    66  GLU66      -0.2867
     21  CB        10.3720   56.2550    6.1460 C.3    66  GLU66       0.0388
     22  CG         9.4440   55.0660    5.9020 C.3    66  GLU66       0.1160
     23  CD         8.2130   55.0310    6.8160 C.2    66  GLU66       0.3649
     24  OE1        8.1060   55.8680    7.7380 O.co2  66  GLU66      -0.2457
     25  OE2        7.3570   54.1320    6.6210 O.co2  66  GLU66      -0.2457
     26  N         11.8490   60.7500    9.8760 N.3    86  ASP86      -0.1239
     27  CA        10.5400   60.1550    9.6350 C.3    86  ASP86       0.1674
     28  C          9.5430   61.3070    9.5220 C.2    86  ASP86       0.2266
     29  O          9.3360   62.0430   10.4830 O.2    86  ASP86      -0.2867
     30  CB        10.1440   59.2080   10.7860 C.3    86  ASP86       0.1410
     31  CG         8.9590   58.2930   10.4310 C.2    86  ASP86       0.3668
     32  OD1        8.2750   58.5410    9.4200 O.co2  86  ASP86      -0.2456
     33  OD2        8.7230   57.2970   11.1550 O.co2  86  ASP86      -0.2456
     34  N          6.2150   61.3470    8.9880 N.3    88  ILE88      -0.1231
     35  CA         5.0740   61.0310    9.8530 C.3    88  ILE88       0.1692
     36  C          5.2980   59.6420   10.4520 C.2    88  ILE88       0.2592
     37  O          5.5150   58.6490    9.7080 O.2    88  ILE88      -0.2718
     38  CB         3.7430   60.9980    9.0700 C.3    88  ILE88       0.0266
     39  CG1        3.5010   62.3300    8.3720 C.3    88  ILE88       0.0019
     40  CG2        2.5990   60.7180    9.9990 C.3    88  ILE88       0.0020
     41  CD1        2.3690   62.2870    7.3660 C.3    88  ILE88       0.0001
     42  N          5.5480   59.6200   11.7560 N.am   89  ASP89      -0.1960
     43  CA         5.5740   58.3790   12.5280 C.3    89  ASP89       0.1840
     44  C          4.1830   58.2480   13.1490 C.2    89  ASP89       0.2623
     45  O          3.7000   59.1630   13.7880 O.2    89  ASP89      -0.2715
     46  CB         6.6640   58.4530   13.6140 C.3    89  ASP89       0.1450
     47  CG         6.8470   57.1500   14.3590 C.2    89  ASP89       0.3671
     48  OD1        7.1240   56.1200   13.7200 O.co2  89  ASP89      -0.2456
     49  OD2        6.8700   57.1780   15.6060 O.co2  89  ASP89      -0.2456
     50  N          3.4970   57.1650   12.8290 N.am   90  GLY90      -0.1940
     51  CA         2.0800   57.0900   13.1390 C.3    90  GLY90       0.2014
     52  C          1.1690   57.3200   11.9290 C.2    90  GLY90       0.2640
     53  O          0.0970   57.9390   12.0490 O.2    90  GLY90      -0.2714
     54  N          1.5810   56.8250   10.7590 N.am   91  THR91      -0.1936
     55  CA         0.8050   57.0440    9.5310 C.3    91  THR91       0.2028
     56  C         -0.5790   56.4040    9.6170 C.2    91  THR91       0.2642
     57  O         -1.5490   56.9940    9.1810 O.2    91  THR91      -0.2714
     58  CB         1.5090   56.4910    8.2810 C.3    91  THR91       0.1808
     59  OG1        2.8570   56.9840    8.2180 O.3    91  THR91      -0.2208
     60  CG2        0.7280   56.9030    7.0200 C.3    91  THR91       0.0379
     61  N         -0.6870   55.2340   10.2440 N.am   92  THR92      -0.1950
     62  CA        -2.0010   54.6320   10.4950 C.3    92  THR92       0.1897
     63  C         -2.8910   55.4730   11.4170 C.2    92  THR92       0.2313
     64  O         -4.1030   55.5280   11.2100 O.2    92  THR92      -0.2863
     65  CB        -1.8500   53.2090   11.0610 C.3    92  THR92       0.1794
     66  OG1       -1.0510   52.4510   10.1510 O.3    92  THR92      -0.2208
     67  CG2       -3.2250   52.5260   11.2650 C.3    92  THR92       0.0378
     68  N          3.9460   48.1290   21.0270 N.3   158  GLU158     -0.1245
     69  CA         3.0820   48.1890   19.8670 C.3   158  GLU158      0.1567
     70  C          2.9280   46.7790   19.3940 C.2   158  GLU158      0.2260
     71  O          3.8440   45.9990   19.5810 O.2   158  GLU158     -0.2867
     72  CB         3.7550   49.0250   18.7910 C.3   158  GLU158      0.0388
     73  CG         3.6420   50.4970   19.0510 C.3   158  GLU158      0.1160
     74  CD         2.1980   50.9170   19.0720 C.2   158  GLU158      0.3649
     75  OE1        1.4730   50.5270   18.1410 O.co2 158  GLU158     -0.2457
     76  OE2        1.7700   51.5720   20.0380 O.co2 158  GLU158     -0.2457
     77  N          2.6270   46.0010   16.2610 N.3   160  GLY160     -0.1210
     78  CA         3.4710   45.9310   15.0730 C.3   160  GLY160      0.1956
     79  C          2.7440   45.8410   13.7410 C.2   160  GLY160      0.2612
     80  O          1.5110   45.7510   13.6890 O.2   160  GLY160     -0.2717
     81  N          3.5130   45.8700   12.6520 N.am  161  SER161     -0.1952
     82  CA         2.9280   45.8730   11.3000 C.3   161  SER161      0.1924
     83  C          2.8940   44.5110   10.5890 C.2   161  SER161      0.2314
     84  O          2.2470   44.3570    9.5520 O.2   161  SER161     -0.2863
     85  CB         3.6230   46.9170   10.4110 C.3   161  SER161      0.2116
     86  OG         5.0300   46.9160   10.5870 O.3   161  SER161     -0.2180
     87  N          0.4360   54.2020   19.4280 N.3   190  GLY190     -0.1210
     88  CA         0.4170   54.0770   17.9820 C.3   190  GLY190      0.1956
     89  C          1.6250   54.6130   17.2270 C.2   190  GLY190      0.2613
     90  O          1.7230   54.4550   16.0070 O.2   190  GLY190     -0.2717
     91  N          2.5700   55.2160   17.9350 N.am  191  THR191     -0.1938
     92  CA         3.7860   55.6850   17.2970 C.3   191  THR191      0.2028
     93  C          4.9470   55.3900   18.2360 C.2   191  THR191      0.2642
     94  O          4.8110   55.5200   19.4510 O.2   191  THR191     -0.2714
     95  CB         3.6980   57.2110   16.9640 C.3   191  THR191      0.1808
     96  OG1        4.8580   57.8860   17.4680 O.3   191  THR191     -0.2208
     97  CG2        2.4360   57.8420   17.5680 C.3   191  THR191      0.0379
     98  N          6.0540   54.9080   17.6790 N.am  192  ALA192     -0.1977
     99  CA         7.2110   54.5120   18.4830 C.3   192  ALA192      0.1597
    100  C          7.8750   55.7290   19.1510 C.2   192  ALA192      0.2287
    101  O          8.3180   55.6550   20.2930 O.2   192  ALA192     -0.2864
    102  CB         8.2210   53.7750   17.6100 C.3   192  ALA192      0.0319
    103  N         10.0850   47.0850   21.6620 N.3   209  GLU209     -0.1245
    104  CA         9.4390   46.6320   20.4360 C.3   209  GLU209      0.1567
    105  C         10.4510   45.9870   19.5170 C.2   209  GLU209      0.2260
    106  O         11.6320   46.3300   19.5530 O.2   209  GLU209     -0.2867
    107  CB         8.7800   47.8000   19.6910 C.3   209  GLU209      0.0388
    108  CG         8.1640   47.3720   18.3650 C.3   209  GLU209      0.1160
    109  CD         7.1340   48.3350   17.8040 C.2   209  GLU209      0.3649
    110  OE1        6.9390   49.4520   18.3370 O.co2 209  GLU209     -0.2457
    111  OE2        6.4950   47.9450   16.8100 O.co2 209  GLU209     -0.2457
    112  N         10.7240   45.1910   15.3160 N.3   211  GLY211     -0.1210
    113  CA        10.1400   45.4530   14.0060 C.3   211  GLY211      0.1956
    114  C         10.1950   46.9230   13.5980 C.2   211  GLY211      0.2612
    115  O          9.7860   47.2870   12.5020 O.2   211  GLY211     -0.2717
    116  N         10.5960   47.7850   14.5230 N.am  212  ILE212     -0.1965
    117  CA        10.7860   49.1980   14.2200 C.3   212  ILE212      0.1727
    118  C         11.9390   49.4140   13.2300 C.2   212  ILE212      0.2616
    119  O         12.6690   48.4790   12.9000 O.2   212  ILE212     -0.2715
    120  CB        11.0580   50.0020   15.5080 C.3   212  ILE212      0.0290
    121  CG1       12.1500   49.3390   16.3420 C.3   212  ILE212      0.0022
    122  CG2        9.8090   50.0660   16.3410 C.3   212  ILE212      0.0023
    123  CD1       13.5090   49.9410   16.1760 C.3   212  ILE212      0.0001
    124  N         12.0770   50.6360   12.7260 N.am  213  HIS213     -0.1973
    125  CA        13.1930   50.9740   11.8350 C.3   213  HIS213      0.1656
    126  C         13.9960   52.1200   12.4320 C.2   213  HIS213      0.2291
    127  O         13.4690   52.8860   13.2330 O.2   213  HIS213     -0.2864
    128  CB        12.6830   51.3990   10.4500 C.3   213  HIS213      0.0771
    129  CG        11.9880   50.3090    9.7000 C.ar  213  HIS213      0.0820
    130  ND1       12.6610   49.3510    8.9840 N.ar  213  HIS213     -0.2267
    131  CD2       10.6760   49.9730    9.6430 C.ar  213  HIS213      0.1154
    132  CE1       11.8090   48.4630    8.5240 C.ar  213  HIS213      0.1986
    133  NE2       10.5910   48.8120    8.9060 N.ar  213  HIS213     -0.2212
    134  N         14.5790   55.0730   11.4470 N.3   215  TRP215     -0.1227
    135  CA        13.9360   56.3800   11.3740 C.3   215  TRP215      0.1737
    136  C         12.8060   56.5320   12.3910 C.2   215  TRP215      0.2595
    137  O         12.4880   57.6330   12.8300 O.2   215  TRP215     -0.2718
    138  CB        13.4190   56.6680    9.9490 C.3   215  TRP215      0.0564
    139  CG        12.6600   55.5560    9.2840 C.ar  215  TRP215      0.0003
    140  CD1       11.3500   55.2170    9.4910 C.ar  215  TRP215      0.0946
    141  CD2       13.1630   54.6250    8.3090 C.ar  215  TRP215      0.0152
    142  NE1       11.0210   54.1170    8.7310 N.ar  215  TRP215     -0.2442
    143  CE2       12.1130   53.7420    7.9930 C.ar  215  TRP215      0.0810
    144  CE3       14.4100   54.4520    7.6870 C.ar  215  TRP215      0.0012
    145  CZ2       12.2650   52.6990    7.0830 C.ar  215  TRP215      0.0191
    146  CZ3       14.5610   53.4000    6.7830 C.ar  215  TRP215      0.0001
    147  CH2       13.4960   52.5450    6.4940 C.ar  215  TRP215      0.0015
    148  N         12.1880   55.4180   12.7460 N.am  216  ASP216     -0.1974
    149  CA        11.1600   55.4150   13.7810 C.3   216  ASP216      0.1709
    150  C         11.7390   55.9210   15.1140 C.2   216  ASP216      0.2293
    151  O         11.0840   56.6920   15.8330 O.2   216  ASP216     -0.2864
    152  CB        10.6250   53.9940   13.9750 C.3   216  ASP216      0.1436
    153  CG         9.7750   53.5180   12.8070 C.2   216  ASP216      0.3671
    154  OD1        9.0200   54.3280   12.2270 O.co2 216  ASP216     -0.2456
    155  OD2        9.8560   52.3210   12.4790 O.co2 216  ASP216     -0.2456
@<TRIPOS>BOND
     1    20    19    2
     2     4     3    2
     3    19    18    1
     4     8     6   ar
     5    11    10    1
     6    11    12    2
     7    10     9    1
     8    10    13    1
     9     3     9   am
    10     3     2    1
    11     6     5    1
    12     6     7   ar
    13     5     2    1
    14    16    14    1
    15    18    17    1
    16    18    21    1
    17    13    14    1
    18     2     1    1
    19    22    21    1
    20    22    23    1
    21    14    15    1
    22   147   146   ar
    23   147   145   ar
    24    25    23   ar
    25   146   144   ar
    26    23    24   ar
    27    60    58    1
    28   145   143   ar
    29    41    39    1
    30   144   141   ar
    31   143   141   ar
    32   143   142   ar
    33    59    58    1
    34    58    55    1
    35   141   139   ar
    36    39    38    1
    37   132   133   ar
    38   132   130   ar
    39   142   140   ar
    40   133   131   ar
    41   130   129   ar
    42    34    35    1
    43    38    35    1
    44    38    40    1
    45    57    56    2
    46   139   140   ar
    47   139   138    1
    48    32    31   ar
    49    28    27    1
    50    28    29    2
    51    55    56    1
    52    55    54    1
    53    84    83    2
    54    56    61   am
    55    27    26    1
    56    27    30    1
    57   131   129   ar
    58   129   128    1
    59    37    36    2
    60    35    36    1
    61   138   135    1
    62    66    65    1
    63    61    62    1
    64    85    86    1
    65    85    82    1
    66    31    30    1
    67    31    33   ar
    68   128   125    1
    69    36    42   am
    70    62    65    1
    71    62    63    1
    72    83    82    1
    73    54    52   am
    74    65    67    1
    75    64    63    2
    76    82    81    1
    77   135   134    1
    78   135   136    1
    79    42    43    1
    80   125   126    1
    81   125   124    1
    82    52    53    2
    83    52    51    1
    84   154   153   ar
    85   136   148   am
    86   136   137    2
    87   126   127    2
    88   155   153   ar
    89   115   114    2
    90    43    44    1
    91    43    46    1
    92    81    79   am
    93   124   118   am
    94   148   149    1
    95   153   152    1
    96    50    51    1
    97    50    44   am
    98   119   118    2
    99    44    45    2
   100   118   117    1
   101   114   113    1
   102   114   116   am
   103    46    47    1
   104    80    79    2
   105    48    47   ar
   106    79    78    1
   107   149   152    1
   108   149   150    1
   109   113   112    1
   110   117   116    1
   111   117   120    1
   112    47    49   ar
   113    78    77    1
   114   150   151    2
   115   120   122    1
   116   120   121    1
   117    90    89    2
   118   123   121    1
   119   111   109   ar
   120    95    92    1
   121    95    96    1
   122    95    97    1
   123    89    91   am
   124    89    88    1
   125    92    91    1
   126    92    93    1
   127   102    99    1
   128    98    93   am
   129    98    99    1
   130   109   110   ar
   131   109   108    1
   132    88    87    1
   133    75    74   ar
   134    93    94    2
   135   108   107    1
   136    99   100    1
   137    72    73    1
   138    72    69    1
   139    73    74    1
   140    74    76   ar
   141   100   101    2
   142    70    71    2
   143    70    69    1
   144   105   106    2
   145   105   104    1
   146   107   104    1
   147    69    68    1
   148   104   103    1
