@<TRIPOS>MOLECULE
tmp/1imxA00.pdb
 106 101 0 0 0
SMALL
GASTEIGER

@<TRIPOS>ATOM
      1  N         21.3450   23.1860   19.2810 N.3     1  GLU1       -0.1231
      2  CA        21.7630   23.3600   20.7020 C.3     1  GLU1        0.1699
      3  C         22.2900   22.0340   21.2380 C.2     1  GLU1        0.2593
      4  O         21.5470   21.0530   21.3410 O.2     1  GLU1       -0.2718
      5  CB        20.5740   23.8290   21.5440 C.3     1  GLU1        0.0402
      6  CG        20.9290   24.2480   22.9610 C.3     1  GLU1        0.1161
      7  CD        21.8550   25.4500   23.0050 C.2     1  GLU1        0.3649
      8  OE1       23.0160   25.3330   22.5550 O.co2   1  GLU1       -0.2457
      9  OE2       21.4170   26.5160   23.4910 O.co2   1  GLU1       -0.2457
     10  N         23.5770   22.0060   21.5700 N.am    2  THR2       -0.1939
     11  CA        24.1980   20.7900   22.0810 C.3     2  THR2        0.2028
     12  C         24.8190   21.0250   23.4590 C.2     2  THR2        0.2642
     13  O         24.8150   22.1420   23.9790 O.2     2  THR2       -0.2714
     14  CB        25.3020   20.2750   21.1240 C.3     2  THR2        0.1808
     15  OG1       26.3900   21.2070   21.1030 O.3     2  THR2       -0.2208
     16  CG2       24.7590   20.1190   19.7050 C.3     2  THR2        0.0379
     17  N         25.3520   19.9600   24.0430 N.am    3  LEU3       -0.1977
     18  CA        25.9730   20.0380   25.3630 C.3     3  LEU3        0.1596
     19  C         27.4400   19.6520   25.2780 C.2     3  LEU3        0.2287
     20  O         27.7600   18.5110   24.9680 O.2     3  LEU3       -0.2864
     21  CB        25.2670   19.0900   26.3300 C.3     3  LEU3        0.0297
     22  CG        23.8330   19.4280   26.7320 C.3     3  LEU3        0.0022
     23  CD1       23.2080   18.2360   27.4570 C.3     3  LEU3        0.0001
     24  CD2       23.8370   20.6600   27.6060 C.3     3  LEU3        0.0001
     25  N         29.1030   22.2720   30.4320 N.3     7  GLU7       -0.1245
     26  CA        27.6480   22.1950   30.3090 C.3     7  GLU7        0.1567
     27  C         27.1960   20.7410   30.2670 C.2     7  GLU7        0.2260
     28  O         26.1560   20.3870   30.8270 O.2     7  GLU7       -0.2867
     29  CB        27.1700   22.9210   29.0440 C.3     7  GLU7        0.0388
     30  CG        27.1530   24.4360   29.1620 C.3     7  GLU7        0.1160
     31  CD        26.7470   25.1280   27.8650 C.2     7  GLU7        0.3649
     32  OE1       25.6910   24.7720   27.2880 O.co2   7  GLU7       -0.2457
     33  OE2       27.4860   26.0370   27.4270 O.co2   7  GLU7       -0.2457
     34  N         27.6170   19.2460   33.7730 N.3    10  ASP10      -0.1225
     35  CA        26.5450   19.7500   34.6440 C.3    10  ASP10       0.1805
     36  C         25.2750   18.9430   34.3780 C.2    10  ASP10       0.2597
     37  O         24.5780   18.5380   35.3040 O.2    10  ASP10      -0.2718
     38  CB        26.1990   21.2250   34.3610 C.3    10  ASP10       0.1424
     39  CG        27.1350   22.2160   35.0410 C.2    10  ASP10       0.3668
     40  OD1       27.5390   21.9890   36.1970 O.co2  10  ASP10      -0.2456
     41  OD2       27.4330   23.2560   34.4160 O.co2  10  ASP10      -0.2456
     42  N         24.9650   18.7290   33.1040 N.am   11  ALA11      -0.1979
     43  CA        23.7580   17.9860   32.7390 C.3    11  ALA11       0.1597
     44  C         23.8010   16.5660   33.2680 C.2    11  ALA11       0.2287
     45  O         22.8140   16.0640   33.7920 O.2    11  ALA11      -0.2864
     46  CB        23.5720   17.9710   31.2100 C.3    11  ALA11       0.0319
     47  N         23.3450   16.4250   37.0420 N.3    14  PHE14      -0.1227
     48  CA        21.9570   16.6750   37.4120 C.3    14  PHE14       0.1736
     49  C         21.0600   15.4770   37.1090 C.2    14  PHE14       0.2595
     50  O         20.2750   15.0390   37.9600 O.2    14  PHE14      -0.2718
     51  CB        21.4130   17.8950   36.6720 C.3    14  PHE14       0.0547
     52  CG        20.0100   18.2570   37.0710 C.ar   14  PHE14      -0.0202
     53  CD1       19.7690   18.9150   38.2720 C.ar   14  PHE14      -0.0042
     54  CD2       18.9270   17.9020   36.2700 C.ar   14  PHE14      -0.0042
     55  CE1       18.4640   19.2170   38.6780 C.ar   14  PHE14      -0.0003
     56  CE2       17.6170   18.1950   36.6600 C.ar   14  PHE14      -0.0003
     57  CZ        17.3850   18.8560   37.8690 C.ar   14  PHE14      -0.0000
     58  N         21.1750   14.9480   35.8940 N.am   15  VAL15      -0.1980
     59  CA        20.3610   13.8110   35.4780 C.3    15  VAL15       0.1595
     60  C         20.7210   12.5040   36.1830 C.2    15  VAL15       0.2287
     61  O         19.8430   11.7180   36.5480 O.2    15  VAL15      -0.2864
     62  CB        20.4620   13.5920   33.9430 C.3    15  VAL15       0.0276
     63  CG1       19.7970   12.2780   33.5430 C.3    15  VAL15       0.0022
     64  CG2       19.8090   14.7490   33.2200 C.3    15  VAL15       0.0022
     65  N         26.0430   13.7200   21.9720 N.3    39  CYS39      -0.1235
     66  CA        25.4600   14.9110   22.5810 C.3    39  CYS39       0.1677
     67  C         26.1650   16.2510   22.4580 C.2    39  CYS39       0.2270
     68  O         25.5540   17.2850   22.7320 O.2    39  CYS39      -0.2867
     69  CB        25.2190   14.6400   24.0650 C.3    39  CYS39       0.0956
     70  SG        24.1660   13.2000   24.4160 S.3    39  CYS39      -0.0801
     71  N         23.2220   16.7970   18.5050 N.3    43  SER43      -0.1202
     72  CA        22.2420   17.0960   19.5410 C.3    43  SER43       0.2020
     73  C         21.5750   15.7970   19.9600 C.2    43  SER43       0.2619
     74  O         21.2130   14.9760   19.1200 O.2    43  SER43      -0.2717
     75  CB        21.1920   18.0800   19.0150 C.3    43  SER43       0.2103
     76  OG        20.6100   17.5970   17.8160 O.3    43  SER43      -0.2182
     77  N         21.4220   15.5960   21.2630 N.am   44  CYS44      -0.1955
     78  CA        20.7910   14.3810   21.7440 C.3    44  CYS44       0.1843
     79  C         19.6700   14.7600   22.7080 C.2    44  CYS44       0.2625
     80  O         19.6850   15.8440   23.2800 O.2    44  CYS44      -0.2714
     81  CB        21.8320   13.4730   22.4260 C.3    44  CYS44       0.0997
     82  SG        22.2780   13.9070   24.1440 S.3    44  CYS44      -0.0797
     83  N         18.6830   13.8860   22.8690 N.am   45  ASP45      -0.1957
     84  CA        17.5860   14.1880   23.7780 C.3    45  ASP45       0.1840
     85  C         17.8440   13.5950   25.1590 C.2    45  ASP45       0.2621
     86  O         18.7590   12.7870   25.3370 O.2    45  ASP45      -0.2715
     87  CB        16.2540   13.6790   23.2150 C.3    45  ASP45       0.1450
     88  CG        16.2820   12.2060   22.8780 C.2    45  ASP45       0.3671
     89  OD1       16.7300   11.4050   23.7220 O.co2  45  ASP45      -0.2456
     90  OD2       15.8410   11.8450   21.7650 O.co2  45  ASP45      -0.2456
     91  N         17.0310   13.9990   26.1300 N.am   46  LEU46      -0.1977
     92  CA        17.1720   13.5480   27.5160 C.3    46  LEU46       0.1596
     93  C         17.2990   12.0320   27.6840 C.2    46  LEU46       0.2287
     94  O         18.1370   11.5540   28.4500 O.2    46  LEU46      -0.2864
     95  CB        15.9900   14.0630   28.3510 C.3    46  LEU46       0.0297
     96  CG        16.0090   13.7450   29.8510 C.3    46  LEU46       0.0022
     97  CD1       17.2800   14.3110   30.4770 C.3    46  LEU46       0.0001
     98  CD2       14.7660   14.3370   30.5190 C.3    46  LEU46       0.0001
     99  N         20.7220   10.9370   26.7490 N.3    49  LEU49      -0.1245
    100  CA        21.6660   11.4380   27.7370 C.3    49  LEU49       0.1561
    101  C         21.6810   10.5710   28.9990 C.2    49  LEU49       0.2260
    102  O         22.7430   10.2110   29.5030 O.2    49  LEU49      -0.2867
    103  CB        21.3130   12.8780   28.1140 C.3    49  LEU49       0.0270
    104  CG        22.1960   13.5240   29.1820 C.3    49  LEU49       0.0019
    105  CD1       23.6070   13.6800   28.6420 C.3    49  LEU49       0.0001
    106  CD2       21.6160   14.8800   29.5730 C.3    49  LEU49       0.0001
@<TRIPOS>BOND
     1    76    75    1
     2    71    72    1
     3    75    72    1
     4    74    73    2
     5     1     2    1
     6    72    73    1
     7    16    14    1
     8    73    77   am
     9     2     3    1
    10     2     5    1
    11    15    14    1
    12    14    11    1
    13     3     4    2
    14     3    10   am
    15    77    78    1
    16     5     6    1
    17    10    11    1
    18    78    81    1
    19    78    79    1
    20    90    88   ar
    21    65    66    1
    22    11    12    1
    23    81    82    1
    24    67    66    1
    25    67    68    2
    26     8     7   ar
    27    66    69    1
    28    79    83   am
    29    79    80    2
    30    83    84    1
    31    88    87    1
    32    88    89   ar
    33     6     7    1
    34     7     9   ar
    35    87    84    1
    36    12    13    2
    37    12    17   am
    38    84    85    1
    39    17    18    1
    40    69    70    1
    41    82    70    1
    42    20    19    2
    43    85    86    2
    44    85    91   am
    45    19    18    1
    46    18    21    1
    47    91    92    1
    48    21    22    1
    49    22    23    1
    50    22    24    1
    51    99   100    1
    52    32    31   ar
    53    33    31   ar
    54    92    93    1
    55    92    95    1
    56    93    94    2
    57   100   103    1
    58   100   101    1
    59    31    30    1
    60   103   104    1
    61    95    96    1
    62   105   104    1
    63   101   102    2
    64    29    30    1
    65    29    26    1
    66   104   106    1
    67    96    97    1
    68    96    98    1
    69    27    26    1
    70    27    28    2
    71    26    25    1
    72    46    43    1
    73    43    42    1
    74    43    44    1
    75    42    36   am
    76    64    62    1
    77    44    45    2
    78    63    62    1
    79    34    35    1
    80    62    59    1
    81    38    35    1
    82    38    39    1
    83    36    35    1
    84    36    37    2
    85    41    39   ar
    86    39    40   ar
    87    59    58    1
    88    59    60    1
    89    58    49   am
    90    60    61    2
    91    54    56   ar
    92    54    52   ar
    93    56    57   ar
    94    51    52    1
    95    51    48    1
    96    47    48    1
    97    52    53   ar
    98    49    48    1
    99    49    50    2
   100    57    55   ar
   101    53    55   ar
