@<TRIPOS>MOLECULE
tmp/1in5A00.pdb
 180 174 0 0 0
SMALL
GASTEIGER

@<TRIPOS>ATOM
      1  N         62.0000  -27.5030  -37.3700 N.3     1  GLN1       -0.1245
      2  CA        61.4630  -26.8670  -36.1320 C.3     1  GLN1        0.1566
      3  C         60.1680  -27.5640  -35.7220 C.2     1  GLN1        0.2260
      4  O         59.3000  -26.9660  -35.0820 O.2     1  GLN1       -0.2867
      5  CB        61.1870  -25.3810  -36.3870 C.3     1  GLN1        0.0367
      6  CG        61.1570  -24.5320  -35.1290 C.3     1  GLN1        0.0905
      7  CD        62.5370  -24.3640  -34.5140 C.2     1  GLN1        0.2608
      8  OE1       63.4220  -23.7470  -35.1100 O.2     1  GLN1       -0.2717
      9  NE2       62.7270  -24.9150  -33.3180 N.am    1  GLN1       -0.0878
     10  N         59.8480  -29.7260  -33.5650 N.3     3  LEU3       -0.1231
     11  CA        59.8920  -30.0640  -32.1460 C.3     3  LEU3        0.1693
     12  C         59.5350  -28.8610  -31.2810 C.2     3  LEU3        0.2592
     13  O         59.3030  -28.9960  -30.0800 O.2     3  LEU3       -0.2718
     14  CB        61.2840  -30.5830  -31.7610 C.3     3  LEU3        0.0284
     15  CG        61.6990  -31.9390  -32.3410 C.3     3  LEU3        0.0019
     16  CD1       63.0980  -32.3030  -31.8670 C.3     3  LEU3        0.0001
     17  CD2       60.7050  -32.9980  -31.9120 C.3     3  LEU3        0.0001
     18  N         59.4810  -27.6840  -31.8940 N.am    4  ARG4       -0.1966
     19  CA        59.1560  -26.4680  -31.1590 C.3     4  ARG4        0.1714
     20  C         57.6540  -26.2560  -30.9620 C.2     4  ARG4        0.2458
     21  O         56.8770  -26.3460  -31.9110 O.2     4  ARG4       -0.2730
     22  CB        59.7370  -25.2500  -31.8760 C.3     4  ARG4        0.0347
     23  CG        59.4320  -23.9500  -31.1610 C.3     4  ARG4        0.0492
     24  CD        59.6190  -22.7570  -32.0660 C.3     4  ARG4        0.2205
     25  NE        61.0200  -22.5080  -32.3740 N.pl3   4  ARG4       -0.0865
     26  CZ        61.4330  -21.5680  -33.2130 C.cat   4  ARG4        0.5346
     27  NH1       60.5480  -20.7940  -33.8260 N.pl3   4  ARG4        0.1354
     28  NH2       62.7290  -21.3980  -33.4390 N.pl3   4  ARG4        0.1354
     29  N         57.2320  -25.9680  -29.7180 N.am    5  PRO5       -0.2727
     30  CA        55.8120  -25.7380  -29.4270 C.3     5  PRO5        0.1402
     31  C         55.2680  -24.6000  -30.2860 C.2     5  PRO5        0.2269
     32  O         55.9390  -23.5830  -30.4690 O.2     5  PRO5       -0.2865
     33  CB        55.8200  -25.3800  -27.9410 C.3     5  PRO5        0.0296
     34  CG        56.9570  -26.1810  -27.4150 C.3     5  PRO5        0.0237
     35  CD        58.0250  -25.9830  -28.4720 C.3     5  PRO5        0.0939
     36  N         51.0290  -26.2880  -26.0630 N.3    10  GLU10      -0.1231
     37  CA        52.0810  -27.2520  -26.3820 C.3    10  GLU10       0.1699
     38  C         53.3610  -26.9440  -25.6140 C.2    10  GLU10       0.2592
     39  O         54.3530  -27.6550  -25.7530 O.2    10  GLU10      -0.2718
     40  CB        52.4000  -27.2430  -27.8800 C.3    10  GLU10       0.0402
     41  CG        51.3280  -27.8560  -28.7510 C.3    10  GLU10       0.1161
     42  CD        51.6520  -27.7760  -30.2340 C.2    10  GLU10       0.3649
     43  OE1       50.7230  -28.0110  -31.0430 O.co2  10  GLU10      -0.2457
     44  OE2       52.8140  -27.4820  -30.5950 O.co2  10  GLU10      -0.2457
     45  N         53.3290  -25.8950  -24.7990 N.am   11  PHE11      -0.1962
     46  CA        54.5070  -25.4780  -24.0370 C.3    11  PHE11       0.1771
     47  C         54.4900  -26.0340  -22.6170 C.2    11  PHE11       0.2619
     48  O         53.7510  -25.5570  -21.7560 O.2    11  PHE11      -0.2715
     49  CB        54.5650  -23.9450  -24.0220 C.3    11  PHE11       0.0574
     50  CG        55.9120  -23.3730  -23.6680 C.ar   11  PHE11      -0.0200
     51  CD1       56.3160  -23.2680  -22.3410 C.ar   11  PHE11      -0.0042
     52  CD2       56.7560  -22.8870  -24.6680 C.ar   11  PHE11      -0.0042
     53  CE1       57.5420  -22.6810  -22.0090 C.ar   11  PHE11      -0.0003
     54  CE2       57.9810  -22.2990  -24.3530 C.ar   11  PHE11      -0.0003
     55  CZ        58.3760  -22.1940  -23.0200 C.ar   11  PHE11      -0.0000
     56  N         55.3090  -27.0540  -22.3770 N.am   12  ILE12      -0.1977
     57  CA        55.3970  -27.6780  -21.0630 C.3    12  ILE12       0.1596
     58  C         56.2180  -26.8330  -20.0930 C.2    12  ILE12       0.2287
     59  O         57.2630  -26.2970  -20.4570 O.2    12  ILE12      -0.2864
     60  CB        56.0270  -29.0870  -21.1680 C.3    12  ILE12       0.0276
     61  CG1       55.1160  -29.9830  -22.0020 C.3    12  ILE12       0.0022
     62  CG2       56.2490  -29.6720  -19.7750 C.3    12  ILE12       0.0022
     63  CD1       55.6300  -31.3750  -22.1850 C.3    12  ILE12       0.0001
     64  N         69.7030  -19.0550  -21.5750 N.3    44  PRO44      -0.2102
     65  CA        69.4440  -19.5900  -22.9120 C.3    44  PRO44       0.1504
     66  C         68.9240  -21.0280  -22.9080 C.2    44  PRO44       0.2576
     67  O         69.2030  -21.7990  -21.9920 O.2    44  PRO44      -0.2718
     68  CB        70.8040  -19.4540  -23.6050 C.3    44  PRO44       0.0282
     69  CG        71.7740  -19.6020  -22.4790 C.3    44  PRO44       0.0208
     70  CD        71.1410  -18.7990  -21.3710 C.3    44  PRO44       0.0893
     71  N         68.1430  -21.3620  -23.9310 N.am   45  GLY45      -0.1943
     72  CA        67.5960  -22.7010  -24.0720 C.3    45  GLY45       0.2014
     73  C         66.3110  -22.9670  -23.3100 C.2    45  GLY45       0.2639
     74  O         65.8090  -24.0890  -23.3200 O.2    45  GLY45      -0.2714
     75  N         65.7640  -21.9290  -22.6810 N.am   46  LEU46      -0.1963
     76  CA        64.5470  -22.0640  -21.8870 C.3    46  LEU46       0.1728
     77  C         63.2360  -21.7760  -22.6040 C.2    46  LEU46       0.2617
     78  O         62.1780  -21.8700  -21.9980 O.2    46  LEU46      -0.2715
     79  CB        64.6330  -21.1770  -20.6370 C.3    46  LEU46       0.0311
     80  CG        65.7910  -21.4300  -19.6720 C.3    46  LEU46       0.0022
     81  CD1       65.6850  -20.4360  -18.5210 C.3    46  LEU46       0.0001
     82  CD2       65.7510  -22.8620  -19.1400 C.3    46  LEU46       0.0001
     83  N         63.3020  -21.4000  -23.8770 N.am   47  GLY47      -0.1940
     84  CA        62.0770  -21.1400  -24.6140 C.3    47  GLY47       0.2014
     85  C         61.6290  -19.7060  -24.8220 C.2    47  GLY47       0.2639
     86  O         60.4480  -19.4750  -25.0950 O.2    47  GLY47      -0.2714
     87  N         62.5480  -18.7510  -24.7100 N.am   48  LYS48      -0.1963
     88  CA        62.1980  -17.3450  -24.8910 C.3    48  LYS48       0.1728
     89  C         61.8240  -17.0630  -26.3570 C.2    48  LYS48       0.2617
     90  O         60.8200  -16.4050  -26.6390 O.2    48  LYS48      -0.2715
     91  CB        63.3650  -16.4470  -24.4110 C.3    48  LYS48       0.0311
     92  CG        63.6230  -16.5240  -22.8870 C.3    48  LYS48       0.0038
     93  CD        64.6760  -15.5290  -22.4260 C.3    48  LYS48       0.0206
     94  CE        66.0240  -15.7950  -23.0720 C.3    48  LYS48       0.1093
     95  NZ        66.6750  -17.0750  -22.6600 N.3    48  LYS48      -0.1314
     96  N         62.6180  -17.5850  -27.2850 N.am   49  THR49      -0.1937
     97  CA        62.3360  -17.4100  -28.7080 C.3    49  THR49       0.2028
     98  C         61.0050  -18.0850  -29.0260 C.2    49  THR49       0.2642
     99  O         60.1370  -17.5160  -29.6890 O.2    49  THR49      -0.2714
    100  CB        63.4470  -18.0530  -29.5770 C.3    49  THR49       0.1808
    101  OG1       64.6720  -17.3480  -29.3740 O.3    49  THR49      -0.2208
    102  CG2       63.0780  -17.9900  -31.0560 C.3    49  THR49       0.0379
    103  N         60.8510  -19.3000  -28.5130 N.am   50  THR50      -0.1950
    104  CA        59.6350  -20.0800  -28.7010 C.3    50  THR50       0.1897
    105  C         58.4060  -19.2790  -28.2850 C.2    50  THR50       0.2313
    106  O         57.3980  -19.2390  -29.0060 O.2    50  THR50      -0.2863
    107  CB        59.7040  -21.3710  -27.8750 C.3    50  THR50       0.1794
    108  OG1       60.8330  -22.1440  -28.2890 O.3    50  THR50      -0.2208
    109  CG2       58.4540  -22.2060  -28.0640 C.3    50  THR50       0.0378
    110  N         66.3380  -10.4460  -30.0610 N.3    93  ASP93      -0.1239
    111  CA        67.1330  -11.3050  -29.2090 C.3    93  ASP93       0.1674
    112  C         68.3120  -10.4840  -28.6770 C.2    93  ASP93       0.2266
    113  O         68.7770   -9.5550  -29.3430 O.2    93  ASP93      -0.2867
    114  CB        67.6370  -12.4970  -30.0170 C.3    93  ASP93       0.1410
    115  CG        68.2410  -13.5660  -29.1470 C.2    93  ASP93       0.3668
    116  OD1       67.5740  -13.9770  -28.1780 O.co2  93  ASP93      -0.2456
    117  OD2       69.3770  -13.9930  -29.4380 O.co2  93  ASP93      -0.2456
    118  N         64.3160  -10.0890  -25.7150 N.3   128  SER128     -0.1217
    119  CA        64.8110  -11.2770  -25.0420 C.3   128  SER128      0.1889
    120  C         66.1840  -10.9840  -24.4650 C.2   128  SER128      0.2288
    121  O         67.0290  -10.3820  -25.1240 O.2   128  SER128     -0.2866
    122  CB        64.9070  -12.4430  -26.0200 C.3   128  SER128      0.2089
    123  OG        65.4180  -13.5910  -25.3680 O.3   128  SER128     -0.2183
    124  N         63.9090  -25.4770  -15.5990 N.3   152  TYR152     -0.1241
    125  CA        62.7620  -26.3690  -15.4920 C.3   152  TYR152      0.1605
    126  C         63.0240  -27.4770  -14.4770 C.2   152  TYR152      0.2264
    127  O         64.1750  -27.7410  -14.1170 O.2   152  TYR152     -0.2867
    128  CB        62.4510  -27.0210  -16.8440 C.3   152  TYR152      0.0534
    129  CG        61.8950  -26.0900  -17.8960 C.ar  152  TYR152     -0.0201
    130  CD1       62.6500  -25.0200  -18.3860 C.ar  152  TYR152     -0.0009
    131  CD2       60.6230  -26.2970  -18.4280 C.ar  152  TYR152     -0.0009
    132  CE1       62.1470  -24.1840  -19.3950 C.ar  152  TYR152      0.0417
    133  CE2       60.1170  -25.4740  -19.4230 C.ar  152  TYR152      0.0417
    134  CZ        60.8790  -24.4240  -19.9010 C.ar  152  TYR152      0.1957
    135  OH        60.3660  -23.6220  -20.8950 O.3   152  TYR152     -0.2866
    136  N         59.1220  -33.1900  -21.5600 N.3   160  ILE160     -0.1245
    137  CA        59.5720  -32.5650  -22.8000 C.3   160  ILE160      0.1561
    138  C         60.3250  -33.6090  -23.6230 C.2   160  ILE160      0.2260
    139  O         60.1760  -33.6770  -24.8420 O.2   160  ILE160     -0.2867
    140  CB        60.4750  -31.3430  -22.4860 C.3   160  ILE160      0.0252
    141  CG1       59.5980  -30.2180  -21.9190 C.3   160  ILE160      0.0019
    142  CG2       61.2120  -30.8670  -23.7320 C.3   160  ILE160      0.0019
    143  CD1       60.3760  -29.0870  -21.2700 C.3   160  ILE160      0.0001
    144  N         57.9270  -36.1250  -25.1610 N.3   163  ARG163     -0.1245
    145  CA        57.2730  -35.4380  -26.2670 C.3   163  ARG163      0.1563
    146  C         58.1940  -35.3970  -27.4860 C.2   163  ARG163      0.2260
    147  O         57.7530  -35.6540  -28.6080 O.2   163  ARG163     -0.2867
    148  CB        56.8970  -34.0130  -25.8590 C.3   163  ARG163      0.0307
    149  CG        56.3660  -33.1450  -26.9930 C.3   163  ARG163      0.0489
    150  CD        55.9100  -31.7850  -26.4740 C.3   163  ARG163      0.2205
    151  NE        55.3910  -30.9130  -27.5290 N.pl3 163  ARG163     -0.0865
    152  CZ        56.1280  -30.3720  -28.4950 C.cat 163  ARG163      0.5346
    153  NH1       55.5590  -29.5950  -29.4080 N.pl3 163  ARG163      0.1354
    154  NH2       57.4340  -30.5970  -28.5450 N.pl3 163  ARG163      0.1354
    155  N         65.4730  -27.1850  -21.5360 N.3   188  PRO188     -0.2102
    156  CA        64.8100  -27.9340  -22.6040 C.3   188  PRO188      0.1504
    157  C         65.7170  -28.1360  -23.8330 C.2   188  PRO188      0.2575
    158  O         65.7480  -29.2190  -24.4060 O.2   188  PRO188     -0.2718
    159  CB        63.5880  -27.0700  -22.9130 C.3   188  PRO188      0.0282
    160  CG        63.2650  -26.4520  -21.5740 C.3   188  PRO188      0.0208
    161  CD        64.6350  -26.0500  -21.0840 C.3   188  PRO188      0.0893
    162  N         66.4410  -27.0960  -24.2290 N.am  189  ARG189     -0.1980
    163  CA        67.3290  -27.1950  -25.3870 C.3   189  ARG189      0.1597
    164  C         68.3400  -28.3230  -25.1960 C.2   189  ARG189      0.2287
    165  O         68.5750  -29.1220  -26.1060 O.2   189  ARG189     -0.2864
    166  CB        68.0750  -25.8790  -25.6040 C.3   189  ARG189      0.0334
    167  CG        69.0460  -25.9080  -26.7740 C.3   189  ARG189      0.0492
    168  CD        69.9980  -24.7220  -26.7260 C.3   189  ARG189      0.2205
    169  NE        69.3250  -23.4490  -26.9600 N.pl3 189  ARG189     -0.0865
    170  CZ        69.8990  -22.2670  -26.7680 C.cat 189  ARG189      0.5346
    171  NH1       71.1520  -22.2030  -26.3360 N.pl3 189  ARG189      0.1354
    172  NH2       69.2250  -21.1520  -27.0130 N.pl3 189  ARG189      0.1354
    173  N         66.6230  -31.8730  -25.2700 N.3   192  ILE192     -0.1245
    174  CA        66.2600  -32.3120  -26.6190 C.3   192  ILE192      0.1561
    175  C         67.4690  -32.7630  -27.4300 C.2   192  ILE192      0.2260
    176  O         67.3890  -33.7450  -28.1690 O.2   192  ILE192     -0.2867
    177  CB        65.5350  -31.1920  -27.3890 C.3   192  ILE192      0.0252
    178  CG1       64.2210  -30.8570  -26.6870 C.3   192  ILE192      0.0019
    179  CG2       65.2620  -31.6390  -28.8250 C.3   192  ILE192      0.0019
    180  CD1       63.6120  -29.5280  -27.1270 C.3   192  ILE192      0.0001
@<TRIPOS>BOND
     1     1     2    1
     2     5     2    1
     3     5     6    1
     4     2     3    1
     5     3     4    2
     6     6     7    1
     7     8     7    2
     8     7     9   am
     9    27    26    1
    10    10    11    1
    11    28    26    1
    12    26    25    2
    13    25    24    1
    14    15    17    1
    15    15    16    1
    16    15    14    1
    17    11    14    1
    18    11    12    1
    19    24    23    1
    20    21    20    2
    21    18    12   am
    22    18    19    1
    23    22    23    1
    24    22    19    1
    25    12    13    2
    26    19    20    1
    27   102   100    1
    28    43    42   ar
    29    20    29   am
    30    44    42   ar
    31    32    31    2
    32    31    30    1
    33    42    41    1
    34   110   111    1
    35   114   111    1
    36   114   115    1
    37    29    30    1
    38    29    35    1
    39    99    98    2
    40   100   101    1
    41   100    97    1
    42   117   115   ar
    43    30    33    1
    44   153   152    1
    45   113   112    2
    46   111   112    1
    47   115   116   ar
    48    98    97    1
    49    98   103   am
    50   106   105    2
    51   179   177    1
    52    41    40    1
    53    97    96    1
    54   104   103    1
    55   104   105    1
    56   104   107    1
    57   147   146    2
    58   154   152    1
    59   152   151    2
    60    35    34    1
    61   108   107    1
    62   176   175    2
    63   109   107    1
    64    33    34    1
    65    40    37    1
    66   151   150    1
    67   146   145    1
    68   175   174    1
    69   177   178    1
    70   177   174    1
    71    96    89   am
    72   180   178    1
    73   172   170    1
    74   149   150    1
    75   149   148    1
    76   169   170    2
    77   169   168    1
    78   167   168    1
    79   167   166    1
    80   170   171    1
    81    90    89    2
    82   174   173    1
    83    37    36    1
    84    37    38    1
    85    89    88    1
    86   145   148    1
    87   145   144    1
    88   165   164    2
    89   122   123    1
    90   122   119    1
    91    39    38    2
    92   118   119    1
    93    38    45   am
    94   166   163    1
    95   163   164    1
    96   163   162    1
    97   121   120    2
    98    86    85    2
    99   119   120    1
   100    88    87    1
   101    88    91    1
   102   139   138    2
   103    85    87   am
   104    85    84    1
   105    45    46    1
   106    52    54   ar
   107    52    50   ar
   108    84    83    1
   109    91    92    1
   110   158   157    2
   111    54    55   ar
   112   162   157   am
   113    72    71    1
   114    72    73    1
   115    46    49    1
   116    46    47    1
   117    49    50    1
   118    71    66   am
   119    83    77   am
   120   157   156    1
   121   142   140    1
   122    50    51   ar
   123   138   137    1
   124    68    65    1
   125    68    69    1
   126    74    73    2
   127    73    75   am
   128    94    95    1
   129    94    93    1
   130    55    53   ar
   131   159   156    1
   132   159   160    1
   133    65    66    1
   134    65    64    1
   135    66    67    2
   136    92    93    1
   137   137   140    1
   138   137   136    1
   139    75    76    1
   140    47    56   am
   141    47    48    2
   142    77    78    2
   143    77    76    1
   144   156   155    1
   145   140   141    1
   146    69    70    1
   147    56    57    1
   148    51    53   ar
   149    63    61    1
   150    61    60    1
   151   141   143    1
   152    76    79    1
   153    64    70    1
   154   160   161    1
   155   155   161    1
   156    60    57    1
   157    60    62    1
   158    57    58    1
   159   135   134    1
   160    79    80    1
   161    59    58    2
   162   134   133   ar
   163   134   132   ar
   164    80    82    1
   165    80    81    1
   166   133   131   ar
   167   132   130   ar
   168   131   129   ar
   169   130   129   ar
   170   129   128    1
   171   128   125    1
   172   124   125    1
   173   125   126    1
   174   126   127    2
