@<TRIPOS>MOLECULE
tmp/1incA00.pdb
 129 126 0 0 0
SMALL
GASTEIGER

@<TRIPOS>ATOM
      1  N          3.6320   23.2910   31.2520 N.3    20  TYR20      -0.1241
      2  CA         4.1440   22.0020   30.7140 C.3    20  TYR20       0.1605
      3  C          4.7750   22.0570   29.3520 C.2    20  TYR20       0.2264
      4  O          4.3720   22.8840   28.5410 O.2    20  TYR20      -0.2867
      5  CB         3.2250   20.7870   30.8210 C.3    20  TYR20       0.0534
      6  CG         1.9900   20.8510   29.9370 C.ar   20  TYR20      -0.0201
      7  CD1        1.0220   21.7940   30.1940 C.ar   20  TYR20      -0.0009
      8  CD2        1.9290   20.0820   28.7860 C.ar   20  TYR20      -0.0009
      9  CE1        0.0270   22.0240   29.3020 C.ar   20  TYR20       0.0417
     10  CE2        0.8790   20.2580   27.9100 C.ar   20  TYR20       0.0417
     11  CZ        -0.0640   21.2300   28.1560 C.ar   20  TYR20       0.1957
     12  OH        -1.1010   21.4020   27.2630 O.3    20  TYR20      -0.2866
     13  N          0.6450   27.1260   29.5310 N.3    28  HIS28      -0.1226
     14  CA         0.1010   27.3910   30.8510 C.3    28  HIS28       0.1752
     15  C         -0.9050   26.3130   31.2180 C.2    28  HIS28       0.2597
     16  O         -1.6730   25.8940   30.3290 O.2    28  HIS28      -0.2718
     17  CB        -0.6070   28.7120   30.8950 C.3    28  HIS28       0.0759
     18  CG        -1.2510   28.9210   32.2530 C.ar   28  HIS28       0.0818
     19  ND1       -0.5860   29.3960   33.3000 N.ar   28  HIS28      -0.2268
     20  CD2       -2.5610   28.6960   32.6040 C.ar   28  HIS28       0.1154
     21  CE1       -1.3960   29.5040   34.2560 C.ar   28  HIS28       0.1986
     22  NE2       -2.6430   29.0680   33.8290 N.ar   28  HIS28      -0.2212
     23  N         -0.7720   25.6970   32.4130 N.am   29  THR29      -0.1939
     24  CA        -1.8570   24.6810   32.6960 C.3    29  THR29       0.2028
     25  C         -2.6580   24.9630   33.9790 C.2    29  THR29       0.2642
     26  O         -3.7980   24.5370   34.1590 O.2    29  THR29      -0.2714
     27  CB        -1.2360   23.2360   32.7360 C.3    29  THR29       0.1808
     28  OG1       -2.2730   22.2970   32.7940 O.3    29  THR29      -0.2208
     29  CG2       -0.2160   22.9680   33.8530 C.3    29  THR29       0.0379
     30  N         -2.0010   25.6420   34.8620 N.am   30  CYS30      -0.1967
     31  CA        -2.2780   25.9290   36.2440 C.3    30  CYS30       0.1712
     32  C         -1.6740   27.1620   36.8380 C.2    30  CYS30       0.2296
     33  O         -0.5840   27.6160   36.5490 O.2    30  CYS30      -0.2864
     34  CB        -2.0280   24.7470   37.1960 C.3    30  CYS30       0.0983
     35  SG        -3.1790   23.3590   37.0770 S.3    30  CYS30      -0.0798
     36  N         -4.1930   17.8420   41.5680 N.3    45  HIS45      -0.1226
     37  CA        -4.6830   17.6530   40.2080 C.3    45  HIS45       0.1752
     38  C         -3.8510   18.2010   39.0260 C.2    45  HIS45       0.2596
     39  O         -3.8390   17.5540   37.9580 O.2    45  HIS45      -0.2718
     40  CB        -5.9820   18.4290   40.2020 C.3    45  HIS45       0.0759
     41  CG        -6.8750   18.1290   39.0340 C.ar   45  HIS45       0.0818
     42  ND1       -6.9620   16.8890   38.4770 N.ar   45  HIS45      -0.2268
     43  CD2       -7.8880   18.9100   38.4800 C.ar   45  HIS45       0.1154
     44  CE1       -8.0460   16.9150   37.5570 C.ar   45  HIS45       0.1986
     45  NE2       -8.6470   18.1440   37.5870 N.ar   45  HIS45      -0.2212
     46  N         -3.0140   19.2650   39.2400 N.am   46  CYS46      -0.1970
     47  CA        -2.2240   19.9510   38.2420 C.3    46  CYS46       0.1712
     48  C         -0.9610   19.1790   37.8830 C.2    46  CYS46       0.2296
     49  O         -0.4890   19.1600   36.7310 O.2    46  CYS46      -0.2864
     50  CB        -1.8260   21.3450   38.7590 C.3    46  CYS46       0.0983
     51  SG        -3.1540   22.5020   38.8770 S.3    46  CYS46      -0.0798
     52  N         -9.4710   30.2050   31.8530 N.3   134  LEU134     -0.1245
     53  CA       -10.5620   30.5890   30.9710 C.3   134  LEU134      0.1561
     54  C        -11.3980   31.7710   31.4560 C.2   134  LEU134      0.2260
     55  O        -11.7840   31.8390   32.6380 O.2   134  LEU134     -0.2867
     56  CB       -11.5380   29.4910   30.5390 C.3   134  LEU134      0.0270
     57  CG       -10.9710   28.1400   30.1530 C.3   134  LEU134      0.0019
     58  CD1      -12.0920   27.2620   29.5420 C.3   134  LEU134      0.0001
     59  CD2       -9.8220   28.2400   29.1850 C.3   134  LEU134      0.0001
     60  N         -8.1490   31.0370   27.5440 N.3   141  LEU141     -0.1245
     61  CA        -7.2870   31.5000   28.6700 C.3   141  LEU141      0.1561
     62  C         -7.1810   32.9780   28.5080 C.2   141  LEU141      0.2260
     63  O         -7.2940   33.4960   27.3780 O.2   141  LEU141     -0.2867
     64  CB        -5.8610   30.9650   28.4150 C.3   141  LEU141      0.0270
     65  CG        -5.7240   29.4340   28.7460 C.3   141  LEU141      0.0019
     66  CD1       -4.2700   29.0800   28.4860 C.3   141  LEU141      0.0001
     67  CD2       -6.0620   28.9960   30.1880 C.3   141  LEU141      0.0001
     68  N        -12.1130   29.2040   36.7580 N.3   184  CYS184     -0.1221
     69  CA       -12.4280   28.3210   35.6810 C.3   184  CYS184      0.1808
     70  C        -11.1650   27.5650   35.2620 C.2   184  CYS184      0.2601
     71  O        -10.2100   27.6280   36.0140 O.2   184  CYS184     -0.2717
     72  CB       -12.9830   29.2030   34.5150 C.3   184  CYS184      0.0970
     73  SG       -13.9280   28.3210   33.3470 S.3   184  CYS184     -0.0800
     74  N        -11.2010   26.7120   34.2540 N.am  185  GLN185     -0.1965
     75  CA       -10.2190   25.7390   33.8920 C.3   185  GLN185      0.1733
     76  C         -8.9620   26.5280   33.7230 C.2   185  GLN185      0.2616
     77  O         -9.0390   27.5660   33.0390 O.2   185  GLN185     -0.2715
     78  CB       -10.6480   25.3810   32.4520 C.3   185  GLN185      0.0408
     79  CG       -10.9210   23.8880   32.2610 C.3   185  GLN185      0.0908
     80  CD       -11.1140   23.5660   30.7560 C.2   185  GLN185      0.2608
     81  OE1      -12.1680   23.9130   30.1530 O.2   185  GLN185     -0.2717
     82  NE2      -10.1900   22.7450   30.1720 N.am  185  GLN185     -0.0878
     83  N         -7.8340   26.0680   34.2710 N.am  186  GLY186     -0.1955
     84  CA        -6.6270   26.9700   34.1770 C.3   186  GLY186      0.1869
     85  C         -6.3310   27.7770   35.4060 C.2   186  GLY186      0.2309
     86  O         -5.2040   28.2740   35.5490 O.2   186  GLY186     -0.2863
     87  N         -7.0120   26.4970   38.4290 N.3   188  SER188     -0.1217
     88  CA        -6.6860   25.4230   39.3780 C.3   188  SER188      0.1889
     89  C         -5.2420   25.4100   39.9280 C.2   188  SER188      0.2288
     90  O         -4.2740   25.7830   39.3050 O.2   188  SER188     -0.2866
     91  CB        -6.9860   24.1050   38.6590 C.3   188  SER188      0.2089
     92  OG        -8.3020   24.1860   38.0740 O.3   188  SER188     -0.2183
     93  N         -7.1570   26.7670   44.3800 N.3   206  THR206     -0.1203
     94  CA        -8.2920   26.5120   43.4590 C.3   206  THR206      0.1994
     95  C         -8.3650   25.0950   42.9490 C.2   206  THR206      0.2619
     96  O         -7.3350   24.5310   42.5900 O.2   206  THR206     -0.2717
     97  CB        -8.2070   27.4570   42.3030 C.3   206  THR206      0.1784
     98  OG1       -8.1660   28.8370   42.7360 O.3   206  THR206     -0.2211
     99  CG2       -9.2560   27.3240   41.2290 C.3   206  THR206      0.0376
    100  N         -9.4110   24.4020   43.3290 N.am  207  SER207     -0.1937
    101  CA        -9.5550   22.9700   43.1100 C.3   207  SER207      0.2055
    102  C        -10.6680   22.6200   42.1000 C.2   207  SER207      0.2643
    103  O        -10.4130   21.9570   41.0960 O.2   207  SER207     -0.2714
    104  CB        -9.7400   22.2790   44.5220 C.3   207  SER207      0.2130
    105  OG       -10.0790   20.8860   44.2340 O.3   207  SER207     -0.2179
    106  N        -11.9150   23.0970   42.2120 N.am  208  PHE208     -0.1959
    107  CA       -12.8940   22.7080   41.2520 C.3   208  PHE208      0.1771
    108  C        -14.0680   23.6510   41.2440 C.2   208  PHE208      0.2619
    109  O        -14.3030   24.3860   42.2350 O.2   208  PHE208     -0.2715
    110  CB       -13.4980   21.2400   41.4480 C.3   208  PHE208      0.0574
    111  CG       -14.1970   20.9630   42.7420 C.ar  208  PHE208     -0.0200
    112  CD1      -13.4440   20.5800   43.8150 C.ar  208  PHE208     -0.0042
    113  CD2      -15.5850   20.9760   42.8420 C.ar  208  PHE208     -0.0042
    114  CE1      -14.0620   20.1020   44.9180 C.ar  208  PHE208     -0.0003
    115  CE2      -16.1720   20.6040   44.0230 C.ar  208  PHE208     -0.0003
    116  CZ       -15.4490   20.1100   45.0190 C.ar  208  PHE208     -0.0000
    117  N        -14.8110   23.4980   40.1220 N.am  209  VAL209     -0.1977
    118  CA       -16.1080   24.1150   39.8410 C.3   209  VAL209      0.1596
    119  C        -17.0410   23.0250   39.3230 C.2   209  VAL209      0.2287
    120  O        -16.6810   21.8460   39.2760 O.2   209  VAL209     -0.2864
    121  CB       -16.0040   25.2430   38.7860 C.3   209  VAL209      0.0276
    122  CG1      -14.9820   26.3690   39.1120 C.3   209  VAL209      0.0022
    123  CG2      -15.7160   24.6820   37.3490 C.3   209  VAL209      0.0022
    124  N        -18.3990   27.0590   34.8440 N.3   214  CYS214     -0.1235
    125  CA       -17.5680   27.6880   35.8240 C.3   214  CYS214      0.1677
    126  C        -18.3280   28.6760   36.7030 C.2   214  CYS214      0.2270
    127  O        -18.3250   28.4620   37.9180 O.2   214  CYS214     -0.2867
    128  CB       -16.4910   28.3640   35.0250 C.3   214  CYS214      0.0956
    129  SG       -15.2500   27.2580   34.3680 S.3   214  CYS214     -0.0801
@<TRIPOS>BOND
     1    12    11    1
     2    63    62    2
     3    60    61    1
     4    10    11   ar
     5    10     8   ar
     6    11     9   ar
     7    64    61    1
     8    64    65    1
     9    66    65    1
    10    62    61    1
    11     4     3    2
    12    65    67    1
    13     8     6   ar
    14    59    57    1
    15     9     7   ar
    16     3     2    1
    17    13    14    1
    18    58    57    1
    19     6     7   ar
    20     6     5    1
    21    57    56    1
    22    81    80    2
    23    82    80   am
    24    16    15    2
    25    56    53    1
    26     2     5    1
    27     2     1    1
    28    80    79    1
    29    14    17    1
    30    14    15    1
    31    17    18    1
    32    53    54    1
    33    53    52    1
    34    15    23   am
    35    54    55    2
    36    18    20   ar
    37    18    19   ar
    38    79    78    1
    39    23    24    1
    40    78    75    1
    41    20    22   ar
    42    24    27    1
    43    24    25    1
    44    27    28    1
    45    27    29    1
    46    77    76    2
    47    19    21   ar
    48    73   129    1
    49    73    72    1
    50    76    75    1
    51    76    83   am
    52    22    21   ar
    53    75    74    1
    54    25    26    2
    55    25    30   am
    56    84    83    1
    57    84    85    1
    58    74    70   am
    59   129   128    1
    60    72    69    1
    61   124   125    1
    62    30    31    1
    63   128   125    1
    64    70    69    1
    65    70    71    2
    66    85    86    2
    67    69    68    1
    68   125   126    1
    69    31    32    1
    70    31    34    1
    71    33    32    2
    72   126   127    2
    73    49    48    2
    74    35    34    1
    75    35    51    1
    76   123   121    1
    77    44    45   ar
    78    44    42   ar
    79    45    43   ar
    80    48    47    1
    81    39    38    2
    82    92    91    1
    83    47    50    1
    84    47    46    1
    85    87    88    1
    86    42    41   ar
    87    43    41   ar
    88    91    88    1
    89    50    51    1
    90   121   122    1
    91   121   118    1
    92    38    46   am
    93    38    37    1
    94    41    40    1
    95   120   119    2
    96    90    89    2
    97   119   118    1
    98    88    89    1
    99   118   117    1
   100   117   108   am
   101    40    37    1
   102    37    36    1
   103   103   102    2
   104    99    97    1
   105   108   107    1
   106   108   109    2
   107   107   110    1
   108   107   106    1
   109   110   111    1
   110   102   106   am
   111   102   101    1
   112    97    98    1
   113    97    94    1
   114    96    95    2
   115   111   113   ar
   116   111   112   ar
   117   113   115   ar
   118    95   100   am
   119    95    94    1
   120   101   100    1
   121   101   104    1
   122    94    93    1
   123   112   114   ar
   124   115   116   ar
   125   105   104    1
   126   114   116   ar
