@<TRIPOS>MOLECULE
tmp/1indB00.pdb
 88 85 0 0 0
SMALL
GASTEIGER

@<TRIPOS>ATOM
      1  N         50.9820    7.8680   38.8750 N.3    33  THR33      -0.1218
      2  CA        51.7180    7.3520   37.7200 C.3    33  THR33       0.1862
      3  C         50.5950    7.2710   36.6710 C.2    33  THR33       0.2287
      4  O         49.5330    6.6690   36.8670 O.2    33  THR33      -0.2866
      5  CB        52.4490    5.9980   37.8880 C.3    33  THR33       0.1770
      6  OG1       53.5680    6.2670   38.7820 O.3    33  THR33      -0.2211
      7  CG2       52.9640    5.3160   36.5780 C.3    33  THR33       0.0375
      8  N         49.8130    6.8740   32.3770 N.3    35  SER35      -0.1217
      9  CA        50.2170    6.3240   31.1080 C.3    35  SER35       0.1889
     10  C         49.3260    6.8010   29.9880 C.2    35  SER35       0.2288
     11  O         48.2170    7.2410   30.2440 O.2    35  SER35      -0.2866
     12  CB        49.9850    4.7860   31.2120 C.3    35  SER35       0.2089
     13  OG        51.1120    4.1080   31.7070 O.3    35  SER35      -0.2183
     14  N         54.5510    6.1870   29.8490 N.3    50  THR50      -0.1218
     15  CA        54.2790    6.2020   31.2810 C.3    50  THR50       0.1862
     16  C         55.1560    7.2810   31.9400 C.2    50  THR50       0.2287
     17  O         56.3070    7.5200   31.5870 O.2    50  THR50      -0.2866
     18  CB        54.5200    4.8040   31.9580 C.3    50  THR50       0.1770
     19  OG1       53.5260    3.8190   31.4140 O.3    50  THR50      -0.2211
     20  CG2       54.3780    4.6470   33.4640 C.3    50  THR50       0.0375
     21  N         56.1970    8.3100   35.7940 N.3    52  LEU52      -0.1231
     22  CA        56.0470    7.9760   37.2180 C.3    52  LEU52       0.1693
     23  C         55.7460    9.2020   38.0760 C.2    52  LEU52       0.2592
     24  O         56.1300   10.3410   37.7360 O.2    52  LEU52      -0.2718
     25  CB        57.3580    7.3000   37.6800 C.3    52  LEU52       0.0284
     26  CG        57.9420    6.1090   36.9270 C.3    52  LEU52       0.0019
     27  CD1       59.3000    5.7110   37.5290 C.3    52  LEU52       0.0001
     28  CD2       56.9900    4.9170   36.9960 C.3    52  LEU52       0.0001
     29  N         55.1050    8.9120   39.1830 N.am   53  SER53      -0.1952
     30  CA        54.7210    9.8840   40.2190 C.3    53  SER53       0.1924
     31  C         55.9890   10.3510   40.9450 C.2    53  SER53       0.2314
     32  O         57.1540    9.9910   40.6420 O.2    53  SER53      -0.2863
     33  CB        53.6990    9.2360   41.1260 C.3    53  SER53       0.2116
     34  OG        54.2870    8.0910   41.6790 O.3    53  SER53      -0.2180
     35  N         61.0870    9.1240   36.6360 N.3    57  PHE57      -0.1241
     36  CA        61.2450    8.8660   35.1920 C.3    57  PHE57       0.1605
     37  C         59.9440    8.7450   34.4070 C.2    57  PHE57       0.2264
     38  O         58.8070    8.4900   34.8070 O.2    57  PHE57      -0.2867
     39  CB        62.1080    7.6040   35.0020 C.3    57  PHE57       0.0534
     40  CG        63.5520    7.6130   35.3610 C.ar   57  PHE57      -0.0203
     41  CD1       64.5050    8.3030   34.6190 C.ar   57  PHE57      -0.0042
     42  CD2       63.9780    6.8970   36.4880 C.ar   57  PHE57      -0.0042
     43  CE1       65.8550    8.3020   34.9870 C.ar   57  PHE57      -0.0003
     44  CE2       65.3150    6.8800   36.8640 C.ar   57  PHE57      -0.0003
     45  CZ        66.2580    7.5800   36.1120 C.ar   57  PHE57      -0.0000
     46  N         58.8050    6.8200   30.6950 N.3    59  PHE59      -0.1241
     47  CA        59.3010    5.8040   29.7640 C.3    59  PHE59       0.1605
     48  C         58.4740    5.7930   28.4860 C.2    59  PHE59       0.2264
     49  O         57.2470    5.9490   28.5960 O.2    59  PHE59      -0.2867
     50  CB        59.3380    4.3760   30.3670 C.3    59  PHE59       0.0534
     51  CG        60.0700    4.2480   31.6800 C.ar   59  PHE59      -0.0203
     52  CD1       61.4430    4.1040   31.7540 C.ar   59  PHE59      -0.0042
     53  CD2       59.3690    4.2720   32.8720 C.ar   59  PHE59      -0.0042
     54  CE1       62.0830    3.9980   32.9960 C.ar   59  PHE59      -0.0003
     55  CE2       59.9690    4.1680   34.0910 C.ar   59  PHE59      -0.0003
     56  CZ        61.3530    4.0300   34.1670 C.ar   59  PHE59      -0.0000
     57  N         47.3830    4.7470   37.3840 N.3    99  HIS99      -0.1226
     58  CA        48.3480    3.7560   37.8310 C.3    99  HIS99       0.1752
     59  C         47.7630    2.3270   37.6890 C.2    99  HIS99       0.2596
     60  O         46.6050    2.0940   38.0690 O.2    99  HIS99      -0.2718
     61  CB        48.6750    4.0500   39.3040 C.3    99  HIS99       0.0759
     62  CG        49.7780    3.2090   39.8490 C.ar   99  HIS99       0.0818
     63  ND1       49.7190    2.6750   41.1250 N.ar   99  HIS99      -0.2268
     64  CD2       50.9430    2.8020   39.3030 C.ar   99  HIS99       0.1154
     65  CE1       50.8180    1.9770   41.3290 C.ar   99  HIS99       0.1986
     66  NE2       51.5580    2.0520   40.2420 N.ar   99  HIS99      -0.2212
     67  N         48.5840    1.4390   37.1400 N.am  100  ARG100     -0.1966
     68  CA        48.2070    0.0180   36.9230 C.3   100  ARG100      0.1729
     69  C         46.9130   -0.1210   36.1220 C.2   100  ARG100      0.2616
     70  O         46.1310   -1.0650   36.3010 O.2   100  ARG100     -0.2715
     71  CB        48.0270   -0.6930   38.2790 C.3   100  ARG100      0.0348
     72  CG        49.2890   -0.8410   39.0690 C.3   100  ARG100      0.0492
     73  CD        49.2100   -1.8530   40.1700 C.3   100  ARG100      0.2205
     74  NE        50.4680   -1.8220   40.9230 N.pl3 100  ARG100     -0.0865
     75  CZ        50.6850   -2.3950   42.0920 C.cat 100  ARG100      0.5346
     76  NH1       49.7650   -3.1180   42.7540 N.pl3 100  ARG100      0.1354
     77  NH2       51.8540   -2.3010   42.6860 N.pl3 100  ARG100      0.1354
     78  N         46.7060    0.8550   35.2710 N.am  101  PHE101     -0.1974
     79  CA        45.5720    1.0090   34.3310 C.3   101  PHE101      0.1639
     80  C         44.1700    0.7580   34.9000 C.2   101  PHE101      0.2290
     81  O         43.2700    0.2210   34.2030 O.2   101  PHE101     -0.2864
     82  CB        45.8050    0.0580   33.1390 C.3   101  PHE101      0.0560
     83  CG        47.2170    0.0450   32.6210 C.ar  101  PHE101     -0.0200
     84  CD1       47.6410    1.0310   31.7300 C.ar  101  PHE101     -0.0042
     85  CD2       48.0990   -0.9510   33.0700 C.ar  101  PHE101     -0.0042
     86  CE1       48.9420    1.0300   31.2600 C.ar  101  PHE101     -0.0003
     87  CE2       49.4030   -0.9460   32.5900 C.ar  101  PHE101     -0.0003
     88  CZ        49.8240    0.0240   31.6930 C.ar  101  PHE101     -0.0000
@<TRIPOS>BOND
     1    48    49    2
     2    48    47    1
     3    47    50    1
     4    47    46    1
     5    14    15    1
     6    10    11    2
     7    10     9    1
     8    50    51    1
     9     9    12    1
    10     9     8    1
    11    12    13    1
    12    86    88   ar
    13    86    84   ar
    14    15    16    1
    15    15    18    1
    16    19    18    1
    17    17    16    2
    18    51    52   ar
    19    51    53   ar
    20    88    87   ar
    21    84    83   ar
    22    52    54   ar
    23    18    20    1
    24    87    85   ar
    25    83    85   ar
    26    83    82    1
    27    53    55   ar
    28    54    56   ar
    29    82    79    1
    30    55    56   ar
    31    81    80    2
    32    79    80    1
    33    79    78    1
    34    37    38    2
    35    37    36    1
    36    41    43   ar
    37    41    40   ar
    38    43    45   ar
    39    39    36    1
    40    39    40    1
    41    36    35    1
    42    78    69   am
    43    40    42   ar
    44    21    22    1
    45    45    44   ar
    46    69    70    2
    47    69    68    1
    48    42    44   ar
    49     7     5    1
    50     3     4    2
    51     3     2    1
    52    68    67    1
    53    68    71    1
    54    26    28    1
    55    26    27    1
    56    26    25    1
    57    67    59   am
    58    22    25    1
    59    22    23    1
    60    57    58    1
    61    59    58    1
    62    59    60    2
    63     2     5    1
    64     2     1    1
    65    24    23    2
    66    58    61    1
    67     5     6    1
    68    23    29   am
    69    71    72    1
    70    72    73    1
    71    29    30    1
    72    64    62   ar
    73    64    66   ar
    74    61    62    1
    75    62    63   ar
    76    73    74    1
    77    30    31    1
    78    30    33    1
    79    66    65   ar
    80    32    31    2
    81    74    75    2
    82    63    65   ar
    83    33    34    1
    84    75    77    1
    85    75    76    1
