@<TRIPOS>MOLECULE
tmp/1infA01.pdb
 177 169 0 0 0
SMALL
GASTEIGER

@<TRIPOS>ATOM
      1  N         42.7540   -8.2310   64.8660 N.3    40  ARG40      -0.1231
      2  CA        41.7650   -9.3050   64.7460 C.3    40  ARG40       0.1694
      3  C         41.2970   -9.3590   63.2840 C.2    40  ARG40       0.2591
      4  O         41.6650   -8.5010   62.4900 O.2    40  ARG40      -0.2718
      5  CB        40.6050   -9.1450   65.7350 C.3    40  ARG40       0.0321
      6  CG        40.7490  -10.0370   66.9680 C.3    40  ARG40       0.0489
      7  CD        40.1680  -11.4210   66.7200 C.3    40  ARG40       0.2205
      8  NE        38.7430  -11.4810   67.0760 N.pl3  40  ARG40      -0.0865
      9  CZ        37.8140  -12.1990   66.4420 C.cat  40  ARG40       0.5346
     10  NH1       38.1180  -12.9780   65.4250 N.pl3  40  ARG40       0.1354
     11  NH2       36.5730  -12.1550   66.8430 N.pl3  40  ARG40       0.1354
     12  N         40.5190  -10.3790   62.9260 N.am   41  GLU41      -0.1979
     13  CA        40.0580  -10.5910   61.5510 C.3    41  GLU41       0.1602
     14  C         41.1720  -10.4180   60.5420 C.2    41  GLU41       0.2287
     15  O         41.1350   -9.4940   59.7320 O.2    41  GLU41      -0.2864
     16  CB        38.8990   -9.6770   61.1640 C.3    41  GLU41       0.0415
     17  CG        37.6040   -9.9050   61.9120 C.3    41  GLU41       0.1163
     18  CD        37.5770   -9.2260   63.2650 C.2    41  GLU41       0.3649
     19  OE1       38.3450   -8.2640   63.4740 O.co2  41  GLU41      -0.2457
     20  OE2       36.7860   -9.6520   64.1330 O.co2  41  GLU41      -0.2457
     21  N         34.4250   -5.2340   68.8420 N.3    73  ASP73      -0.1225
     22  CA        34.5990   -5.1770   67.3790 C.3    73  ASP73       0.1805
     23  C         34.4580   -3.8460   66.6900 C.2    73  ASP73       0.2597
     24  O         34.9880   -3.6600   65.6020 O.2    73  ASP73      -0.2718
     25  CB        33.6260   -6.1320   66.6570 C.3    73  ASP73       0.1424
     26  CG        33.5150   -7.5020   67.3180 C.2    73  ASP73       0.3668
     27  OD1       34.3740   -8.3590   67.0570 O.co2  73  ASP73      -0.2456
     28  OD2       32.5540   -7.7370   68.0850 O.co2  73  ASP73      -0.2456
     29  N         33.7320   -2.9150   67.2830 N.am   74  ARG74      -0.1979
     30  CA        33.5240   -1.6590   66.5880 C.3    74  ARG74       0.1597
     31  C         33.7430   -0.3850   67.3790 C.2    74  ARG74       0.2287
     32  O         33.2850   -0.2440   68.5230 O.2    74  ARG74      -0.2864
     33  CB        32.1140   -1.6470   65.9870 C.3    74  ARG74       0.0334
     34  CG        31.8880   -2.6590   64.8860 C.3    74  ARG74       0.0492
     35  CD        30.4340   -2.7280   64.4970 C.3    74  ARG74       0.2205
     36  NE        29.7440   -3.7770   65.2390 N.pl3  74  ARG74      -0.0865
     37  CZ        28.9030   -3.5440   66.2330 C.cat  74  ARG74       0.5346
     38  NH1       28.6500   -2.3030   66.5990 N.pl3  74  ARG74       0.1354
     39  NH2       28.3070   -4.5450   66.8500 N.pl3  74  ARG74       0.1354
     40  N         39.4030    1.7410   65.2340 N.3    78  ARG78      -0.1245
     41  CA        39.7810    0.6460   64.3250 C.3    78  ARG78       0.1563
     42  C         40.1610    1.0130   62.8840 C.2    78  ARG78       0.2260
     43  O         39.4390    1.7630   62.2160 O.2    78  ARG78      -0.2867
     44  CB        38.7370   -0.4800   64.3190 C.3    78  ARG78       0.0307
     45  CG        38.7300   -1.2620   65.5970 C.3    78  ARG78       0.0489
     46  CD        38.0720   -2.6010   65.4060 C.3    78  ARG78       0.2205
     47  NE        39.0490   -3.6610   65.2580 N.pl3  78  ARG78      -0.0865
     48  CZ        38.7280   -4.9290   65.0420 C.cat  78  ARG78       0.5346
     49  NH1       37.4550   -5.2810   64.9340 N.pl3  78  ARG78       0.1354
     50  NH2       39.6780   -5.8430   64.9180 N.pl3  78  ARG78       0.1354
     51  N         36.0540   -0.9130   60.6480 N.3   101  TRP101     -0.1227
     52  CA        35.8970   -1.9910   61.6450 C.3   101  TRP101      0.1737
     53  C         35.3950   -3.3210   61.0270 C.2   101  TRP101      0.2596
     54  O         35.0340   -4.2700   61.7420 O.2   101  TRP101     -0.2718
     55  CB        35.0860   -1.5620   62.8920 C.3   101  TRP101      0.0564
     56  CG        33.8740   -0.7480   62.6040 C.ar  101  TRP101      0.0003
     57  CD1       33.7390    0.5890   62.7840 C.ar  101  TRP101      0.0946
     58  CD2       32.6500   -1.2010   62.0150 C.ar  101  TRP101      0.0152
     59  NE1       32.5210    1.0070   62.3330 N.ar  101  TRP101     -0.2442
     60  CE2       31.8300   -0.0730   61.8540 C.ar  101  TRP101      0.0810
     61  CE3       32.1700   -2.4510   61.6030 C.ar  101  TRP101      0.0012
     62  CZ2       30.5510   -0.1510   61.2930 C.ar  101  TRP101      0.0191
     63  CZ3       30.9000   -2.5270   61.0440 C.ar  101  TRP101      0.0001
     64  CH2       30.1080   -1.3850   60.8950 C.ar  101  TRP101      0.0015
     65  N         35.4710   -3.3880   59.6950 N.am  102  SER102     -0.1952
     66  CA        35.1150   -4.5560   58.8700 C.3   102  SER102      0.1924
     67  C         35.7880   -4.2600   57.5270 C.2   102  SER102      0.2314
     68  O         35.7840   -3.1010   57.0910 O.2   102  SER102     -0.2863
     69  CB        33.5950   -4.6660   58.6710 C.3   102  SER102      0.2116
     70  OG        33.2420   -5.6520   57.6850 O.3   102  SER102     -0.2180
     71  N         24.0900   -2.6420   61.2380 N.3   145  ILE145     -0.1245
     72  CA        25.5000   -3.0110   61.0930 C.3   145  ILE145      0.1561
     73  C         25.9080   -3.5090   59.7170 C.2   145  ILE145      0.2260
     74  O         25.9950   -4.7090   59.4940 O.2   145  ILE145     -0.2867
     75  CB        25.9570   -3.9970   62.2300 C.3   145  ILE145      0.0252
     76  CG1       25.9950   -3.2410   63.5400 C.3   145  ILE145      0.0019
     77  CG2       27.3490   -4.5230   61.9880 C.3   145  ILE145      0.0019
     78  CD1       26.0550   -4.0810   64.7120 C.3   145  ILE145      0.0001
     79  N         28.2610   -4.6220   56.9950 N.3   147  ARG147     -0.1245
     80  CA        29.5320   -5.2890   57.1900 C.3   147  ARG147      0.1563
     81  C         29.9700   -6.0220   55.9400 C.2   147  ARG147      0.2260
     82  O         29.1910   -6.1500   54.9970 O.2   147  ARG147     -0.2867
     83  CB        29.4530   -6.2310   58.3900 C.3   147  ARG147      0.0307
     84  CG        28.1680   -7.0550   58.4700 C.3   147  ARG147      0.0489
     85  CD        28.0960   -7.7380   59.8050 C.3   147  ARG147      0.2205
     86  NE        27.0450   -8.7430   59.8790 N.pl3 147  ARG147     -0.0865
     87  CZ        25.7440   -8.4700   59.8860 C.cat 147  ARG147      0.5346
     88  NH1       25.3340   -7.2210   59.7690 N.pl3 147  ARG147      0.1354
     89  NH2       24.8510   -9.4500   59.9850 N.pl3 147  ARG147      0.1354
     90  N         35.7280   -9.8650   55.2670 N.3   150  GLU150     -0.1245
     91  CA        36.7630  -10.1020   56.2850 C.3   150  GLU150      0.1567
     92  C         37.7930  -11.0620   55.6970 C.2   150  GLU150      0.2260
     93  O         38.4990  -11.7690   56.4270 O.2   150  GLU150     -0.2867
     94  CB        36.2260  -10.6310   57.6330 C.3   150  GLU150      0.0388
     95  CG        35.0500   -9.8510   58.2450 C.3   150  GLU150      0.1160
     96  CD        35.3260   -8.3680   58.5170 C.2   150  GLU150      0.3649
     97  OE1       36.4240   -7.8570   58.1870 O.co2 150  GLU150     -0.2457
     98  OE2       34.4180   -7.7080   59.0610 O.co2 150  GLU150     -0.2457
     99  N         22.4940   -9.4870   63.7220 N.3   169  ALA169     -0.1245
    100  CA        23.3770  -10.6350   63.8910 C.3   169  ALA169      0.1562
    101  C         22.5450  -11.8360   64.3190 C.2   169  ALA169      0.2260
    102  O         22.8540  -12.9720   63.9660 O.2   169  ALA169     -0.2867
    103  CB        24.4440  -10.3370   64.9170 C.3   169  ALA169      0.0290
    104  N         26.4780  -14.0830   55.9920 N.3   199  GLU199     -0.1231
    105  CA        27.4500  -13.0700   56.3510 C.3   199  GLU199      0.1699
    106  C         28.8390  -13.6570   56.2540 C.2   199  GLU199      0.2592
    107  O         28.9620  -14.8560   56.0080 O.2   199  GLU199     -0.2718
    108  CB        27.1550  -12.5190   57.7570 C.3   199  GLU199      0.0402
    109  CG        27.2860  -13.4920   58.9060 C.3   199  GLU199      0.1161
    110  CD        27.4680  -12.7520   60.2210 C.2   199  GLU199      0.3649
    111  OE1       27.1070  -11.5560   60.3010 O.co2 199  GLU199     -0.2457
    112  OE2       27.9870  -13.3480   61.1860 O.co2 199  GLU199     -0.2457
    113  N         29.8640  -12.8060   56.3480 N.am  200  GLU200     -0.1979
    114  CA        31.2790  -13.2090   56.2840 C.3   200  GLU200      0.1602
    115  C         31.5930  -14.2500   55.2110 C.2   200  GLU200      0.2287
    116  O         32.1320  -15.3130   55.5010 O.2   200  GLU200     -0.2864
    117  CB        31.7260  -13.7030   57.6590 C.3   200  GLU200      0.0415
    118  CG        31.5750  -12.6250   58.7110 C.3   200  GLU200      0.1163
    119  CD        32.0280  -13.0220   60.0960 C.2   200  GLU200      0.3649
    120  OE1       32.0570  -14.2320   60.4360 O.co2 200  GLU200     -0.2457
    121  OE2       32.3260  -12.0970   60.8800 O.co2 200  GLU200     -0.2457
    122  N         28.6320  -17.4630   56.5800 N.3   216  ARG216     -0.1245
    123  CA        28.1860  -17.7000   57.9450 C.3   216  ARG216      0.1563
    124  C         26.7070  -17.3440   58.0260 C.2   216  ARG216      0.2260
    125  O         26.2220  -16.5010   57.2880 O.2   216  ARG216     -0.2867
    126  CB        28.9610  -16.8260   58.9540 C.3   216  ARG216      0.0307
    127  CG        28.7450  -17.2250   60.3870 C.3   216  ARG216      0.0489
    128  CD        28.7460  -16.0820   61.4350 C.3   216  ARG216      0.2205
    129  NE        30.0630  -15.5630   61.8060 N.pl3 216  ARG216     -0.0865
    130  CZ        30.3910  -15.0310   62.9980 C.cat 216  ARG216      0.5346
    131  NH1       29.5290  -14.9640   64.0090 N.pl3 216  ARG216      0.1354
    132  NH2       31.6290  -14.5900   63.1980 N.pl3 216  ARG216      0.1354
    133  N         24.4810  -16.6130   61.1070 N.3   218  ASN218     -0.1240
    134  CA        24.6100  -16.3820   62.5220 C.3   218  ASN218      0.1653
    135  C         23.4360  -16.6970   63.4490 C.2   218  ASN218      0.2266
    136  O         23.6500  -16.8890   64.6490 O.2   218  ASN218     -0.2867
    137  CB        25.1020  -14.9480   62.7360 C.3   218  ASN218      0.1155
    138  CG        25.8340  -14.7870   64.0310 C.2   218  ASN218      0.2627
    139  OD1       26.9230  -15.3090   64.1990 O.2   218  ASN218     -0.2716
    140  ND2       25.2130  -14.1120   64.9810 N.am  218  ASN218     -0.0877
    141  N         35.8230  -22.2990   69.9270 N.3   298  ARG298     -0.1245
    142  CA        36.7610  -21.9860   68.8450 C.3   298  ARG298      0.1563
    143  C         38.1950  -22.4650   69.1530 C.2   298  ARG298      0.2260
    144  O         39.1420  -21.6710   69.1470 O.2   298  ARG298     -0.2867
    145  CB        36.7540  -20.4720   68.5500 C.3   298  ARG298      0.0307
    146  CG        35.3810  -19.8360   68.6070 C.3   298  ARG298      0.0489
    147  CD        35.1310  -18.8450   67.4580 C.3   298  ARG298      0.2205
    148  NE        34.9220  -17.4820   67.9370 N.pl3 298  ARG298     -0.0865
    149  CZ        34.2860  -16.5220   67.2690 C.cat 298  ARG298      0.5346
    150  NH1       33.7680  -16.7470   66.0720 N.pl3 298  ARG298      0.1354
    151  NH2       34.1690  -15.3180   67.8180 N.pl3 298  ARG298      0.1354
    152  N         40.1770  -19.6050   65.3840 N.3   332  TRP332     -0.1227
    153  CA        39.0840  -18.6560   65.1260 C.3   332  TRP332      0.1737
    154  C         38.7860  -18.5170   63.6360 C.2   332  TRP332      0.2595
    155  O         38.7210  -19.5010   62.9250 O.2   332  TRP332     -0.2718
    156  CB        39.3440  -17.2770   65.7820 C.3   332  TRP332      0.0564
    157  CG        39.2840  -17.3090   67.2910 C.ar  332  TRP332      0.0003
    158  CD1       39.9380  -18.1870   68.1190 C.ar  332  TRP332      0.0946
    159  CD2       38.5140  -16.4470   68.1490 C.ar  332  TRP332      0.0152
    160  NE1       39.6240  -17.9210   69.4280 N.ar  332  TRP332     -0.2442
    161  CE2       38.7560  -16.8580   69.4780 C.ar  332  TRP332      0.0810
    162  CE3       37.6590  -15.3660   67.9270 C.ar  332  TRP332      0.0012
    163  CZ2       38.1760  -16.2190   70.5830 C.ar  332  TRP332      0.0191
    164  CZ3       37.0870  -14.7320   69.0290 C.ar  332  TRP332      0.0001
    165  CH2       37.3500  -15.1600   70.3390 C.ar  332  TRP332      0.0015
    166  N         38.5610  -17.3080   63.1560 N.am  333  TYR333     -0.1976
    167  CA        38.2540  -17.1430   61.7490 C.3   333  TYR333      0.1639
    168  C         39.3260  -17.8110   60.9070 C.2   333  TYR333      0.2290
    169  O         40.4640  -17.8750   61.3090 O.2   333  TYR333     -0.2864
    170  CB        38.1690  -15.6560   61.3910 C.3   333  TYR333      0.0560
    171  CG        36.9410  -14.9220   61.9160 C.ar  333  TYR333     -0.0198
    172  CD1       36.2240  -15.3970   63.0170 C.ar  333  TYR333     -0.0009
    173  CD2       36.4900  -13.7510   61.2910 C.ar  333  TYR333     -0.0009
    174  CE1       35.0850  -14.7250   63.4810 C.ar  333  TYR333      0.0417
    175  CE2       35.3580  -13.0760   61.7420 C.ar  333  TYR333      0.0417
    176  CZ        34.6580  -13.5710   62.8310 C.ar  333  TYR333      0.1957
    177  OH        33.5030  -12.9480   63.2390 O.3   333  TYR333     -0.2866
@<TRIPOS>BOND
     1    82    81    2
     2   115   116    2
     3   115   114    1
     4    90    91    1
     5    92    91    1
     6    92    93    2
     7    81    80    1
     8   104   105    1
     9   107   106    2
    10   106   113   am
    11   106   105    1
    12   114   113    1
    13   114   117    1
    14    91    94    1
    15   105   108    1
    16   122   123    1
    17    79    80    1
    18    68    67    2
    19    80    83    1
    20   125   124    2
    21    67    66    1
    22    94    95    1
    23   117   118    1
    24    70    69    1
    25   108   109    1
    26   123   124    1
    27   123   126    1
    28    97    96   ar
    29    95    96    1
    30    83    84    1
    31    84    85    1
    32    96    98   ar
    33    69    66    1
    34   118   119    1
    35    66    65    1
    36   109   110    1
    37   126   127    1
    38    74    73    2
    39    65    53   am
    40    73    72    1
    41    15    14    2
    42    88    87    1
    43    85    86    1
    44    86    87    2
    45    87    89    1
    46   119   120   ar
    47   119   121   ar
    48   110   111   ar
    49   110   112   ar
    50   127   128    1
    51    14    13    1
    52    51    52    1
    53    64    63   ar
    54    64    62   ar
    55   168   169    2
    56   168   167    1
    57    53    52    1
    58    53    54    2
    59    63    61   ar
    60    72    71    1
    61    72    75    1
    62   133   134    1
    63    16    13    1
    64    16    17    1
    65   173   175   ar
    66   173   171   ar
    67    62    60   ar
    68   170   167    1
    69   170   171    1
    70   128   129    1
    71    13    12    1
    72    61    58   ar
    73    52    55    1
    74   175   176   ar
    75   167   166    1
    76   129   130    2
    77    60    58   ar
    78    60    59   ar
    79    17    18    1
    80   171   172   ar
    81    77    75    1
    82    58    56   ar
    83    43    42    2
    84    75    76    1
    85    59    57   ar
    86     4     3    2
    87   134   137    1
    88   134   135    1
    89    56    57   ar
    90    56    55    1
    91   137   138    1
    92   176   177    1
    93   176   174   ar
    94    42    41    1
    95   155   154    2
    96    12     3   am
    97   130   132    1
    98   130   131    1
    99   172   174   ar
   100   166   154   am
   101    18    19   ar
   102    18    20   ar
   103     3     2    1
   104   135   136    2
   105    76    78    1
   106   154   153    1
   107    99   100    1
   108   100   101    1
   109   100   103    1
   110   102   101    2
   111   138   139    2
   112   138   140   am
   113    44    41    1
   114    44    45    1
   115    41    40    1
   116    35    34    1
   117    35    36    1
   118     2     1    1
   119     2     5    1
   120    34    33    1
   121    50    48    1
   122    49    48    1
   123    48    47    2
   124   153   152    1
   125   153   156    1
   126    36    37    2
   127    47    46    1
   128    46    45    1
   129    10     9    1
   130    24    23    2
   131     5     6    1
   132   156   157    1
   133    33    30    1
   134   150   149    1
   135    37    38    1
   136    37    39    1
   137     9    11    1
   138     9     8    2
   139    30    29    1
   140    30    31    1
   141    25    26    1
   142    25    22    1
   143    23    29   am
   144    23    22    1
   145     7     6    1
   146     7     8    1
   147    27    26   ar
   148   149   151    1
   149   149   148    2
   150   157   158   ar
   151   157   159   ar
   152    26    28   ar
   153    31    32    2
   154    22    21    1
   155   147   148    1
   156   147   146    1
   157   162   159   ar
   158   162   164   ar
   159   158   160   ar
   160   159   161   ar
   161   145   146    1
   162   145   142    1
   163   142   143    1
   164   142   141    1
   165   164   165   ar
   166   144   143    2
   167   160   161   ar
   168   161   163   ar
   169   165   163   ar
