@<TRIPOS>MOLECULE
tmp/1ingA03.pdb
 152 143 0 0 0
SMALL
GASTEIGER

@<TRIPOS>ATOM
      1  N         47.4460   15.1360  -13.3840 N.3    37  ARG37      -0.1231
      2  CA        47.4630   16.4950  -13.9090 C.3    37  ARG37       0.1694
      3  C         46.0870   16.8420  -14.4020 C.2    37  ARG37       0.2591
      4  O         45.2500   15.9570  -14.6050 O.2    37  ARG37      -0.2718
      5  CB        48.5270   16.7810  -14.9590 C.3    37  ARG37       0.0321
      6  CG        49.6640   17.6520  -14.3840 C.3    37  ARG37       0.0489
      7  CD        49.9760   18.9160  -15.1840 C.3    37  ARG37       0.2205
      8  NE        48.8420   19.8350  -15.2230 N.pl3  37  ARG37      -0.0865
      9  CZ        48.7000   20.8090  -16.1230 C.cat  37  ARG37       0.5346
     10  NH1       49.6040   20.9810  -17.0760 N.pl3  37  ARG37       0.1354
     11  NH2       47.6400   21.6050  -16.0850 N.pl3  37  ARG37       0.1354
     12  N         45.8650   18.1420  -14.5730 N.am   38  GLU38      -0.1979
     13  CA        44.5830   18.7080  -14.9960 C.3    38  GLU38       0.1602
     14  C         43.4780   18.0090  -14.1980 C.2    38  GLU38       0.2287
     15  O         42.8230   17.0890  -14.6800 O.2    38  GLU38      -0.2864
     16  CB        44.3410   18.5980  -16.5050 C.3    38  GLU38       0.0415
     17  CG        45.4210   19.1830  -17.3900 C.3    38  GLU38       0.1163
     18  CD        46.4850   18.1710  -17.7300 C.2    38  GLU38       0.3649
     19  OE1       46.1300   17.0410  -18.1260 O.co2  38  GLU38      -0.2457
     20  OE2       47.6830   18.4970  -17.6370 O.co2  38  GLU38      -0.2457
     21  N         51.8780   16.0980  -22.2740 N.3    70  ASP70      -0.1225
     22  CA        50.4400   16.2010  -22.0710 C.3    70  ASP70       0.1805
     23  C         49.5390   15.0330  -22.4450 C.2    70  ASP70       0.2597
     24  O         48.4900   14.8400  -21.8110 O.2    70  ASP70      -0.2718
     25  CB        49.8950   17.4500  -22.7690 C.3    70  ASP70       0.1424
     26  CG        50.4790   18.7260  -22.2240 C.2    70  ASP70       0.3668
     27  OD1       50.6950   18.8180  -20.9950 O.co2  70  ASP70      -0.2456
     28  OD2       50.7190   19.6420  -23.0330 O.co2  70  ASP70      -0.2456
     29  N         49.9130   14.2600  -23.4620 N.am   71  ARG71      -0.1979
     30  CA        49.0590   13.1510  -23.8830 C.3    71  ARG71       0.1597
     31  C         49.7900   11.8650  -24.2260 C.2    71  ARG71       0.2287
     32  O         50.5670   11.8280  -25.1800 O.2    71  ARG71      -0.2864
     33  CB        48.2600   13.5750  -25.1280 C.3    71  ARG71       0.0334
     34  CG        47.4630   14.8770  -25.0130 C.3    71  ARG71       0.0492
     35  CD        46.9760   15.3510  -26.3740 C.3    71  ARG71       0.2205
     36  NE        48.0950   15.5970  -27.2880 N.pl3  71  ARG71      -0.0865
     37  CZ        48.8320   16.7120  -27.3300 C.cat  71  ARG71       0.5346
     38  NH1       48.5690   17.7530  -26.5430 N.pl3  71  ARG71       0.1354
     39  NH2       49.8230   16.8040  -28.2070 N.pl3  71  ARG71       0.1354
     40  N         43.1070   11.5580  -22.0740 N.3    97  TRP97      -0.1227
     41  CA        44.0990   12.6050  -21.8420 C.3    97  TRP97       0.1737
     42  C         43.4370   13.9880  -21.7800 C.2    97  TRP97       0.2596
     43  O         44.1010   15.0150  -21.7020 O.2    97  TRP97      -0.2718
     44  CB        45.2700   12.5640  -22.8510 C.3    97  TRP97       0.0564
     45  CG        45.0000   12.3070  -24.3290 C.ar   97  TRP97       0.0003
     46  CD1       45.5010   11.2640  -25.0600 C.ar   97  TRP97       0.0946
     47  CD2       44.3690   13.1860  -25.2830 C.ar   97  TRP97       0.0152
     48  NE1       45.2440   11.4480  -26.3990 N.ar   97  TRP97      -0.2442
     49  CE2       44.5540   12.6150  -26.5660 C.ar   97  TRP97       0.0810
     50  CE3       43.6790   14.3980  -25.1860 C.ar   97  TRP97       0.0012
     51  CZ2       44.0730   13.2180  -27.7360 C.ar   97  TRP97       0.0191
     52  CZ3       43.2040   14.9930  -26.3530 C.ar   97  TRP97       0.0001
     53  CH2       43.4040   14.4010  -27.6090 C.ar   97  TRP97       0.0015
     54  N         42.1160   13.9930  -21.7430 N.am   98  SER98      -0.1952
     55  CA        41.3480   15.2220  -21.6800 C.3    98  SER98       0.1924
     56  C         39.9440   14.7410  -21.3630 C.2    98  SER98       0.2314
     57  O         39.4680   13.8120  -22.0210 O.2    98  SER98      -0.2863
     58  CB        41.4010   15.9230  -23.0370 C.3    98  SER98       0.2116
     59  OG        40.5660   17.0700  -23.0690 O.3    98  SER98      -0.2180
     60  N         44.2210   17.6320  -32.0560 N.3   141  ILE141     -0.1245
     61  CA        44.0330   17.4920  -30.6060 C.3   141  ILE141      0.1561
     62  C         42.6480   17.8340  -30.0530 C.2   141  ILE141      0.2260
     63  O         42.4830   18.7870  -29.2720 O.2   141  ILE141     -0.2867
     64  CB        45.0880   18.2790  -29.8250 C.3   141  ILE141      0.0252
     65  CG1       46.4850   17.9280  -30.3330 C.3   141  ILE141      0.0019
     66  CG2       45.0100   17.9420  -28.3370 C.3   141  ILE141      0.0019
     67  CD1       47.5800   18.6270  -29.6020 C.3   141  ILE141      0.0001
     68  N         39.9920   18.3070  -27.9260 N.3   143  ARG143     -0.1245
     69  CA        40.0320   18.4390  -26.4840 C.3   143  ARG143      0.1563
     70  C         38.7230   18.9020  -25.9110 C.2   143  ARG143      0.2260
     71  O         37.7660   19.1400  -26.6560 O.2   143  ARG143     -0.2867
     72  CB        41.1590   19.3920  -26.0840 C.3   143  ARG143      0.0307
     73  CG        41.2510   20.7100  -26.8680 C.3   143  ARG143      0.0489
     74  CD        42.7320   21.1210  -26.9040 C.3   143  ARG143      0.2205
     75  NE        43.1050   22.2410  -27.7880 N.pl3 143  ARG143     -0.0865
     76  CZ        42.7730   22.3690  -29.0810 C.cat 143  ARG143      0.5346
     77  NH1       42.0230   21.4480  -29.6950 N.pl3 143  ARG143      0.1354
     78  NH2       43.2420   23.4040  -29.7900 N.pl3 143  ARG143      0.1354
     79  N         38.2350   19.7460  -18.9910 N.3   146  GLU146     -0.1245
     80  CA        39.1890   19.3740  -17.9250 C.3   146  GLU146      0.1567
     81  C         38.5420   19.9240  -16.6570 C.2   146  GLU146      0.2260
     82  O         39.2110   20.3550  -15.7170 O.2   146  GLU146     -0.2867
     83  CB        40.5640   20.0050  -18.0970 C.3   146  GLU146      0.0388
     84  CG        41.6080   19.0920  -18.6440 C.3   146  GLU146      0.1160
     85  CD        41.3940   18.7540  -20.0910 C.2   146  GLU146      0.3649
     86  OE1       40.2450   18.8770  -20.5560 O.co2 146  GLU146     -0.2457
     87  OE2       42.3910   18.3630  -20.7630 O.co2 146  GLU146     -0.2457
     88  N         46.1480   25.4020  -31.1930 N.3   165  ALA165     -0.1245
     89  CA        46.4360   26.0460  -29.8960 C.3   165  ALA165      0.1562
     90  C         46.3460   27.5640  -30.0060 C.2   165  ALA165      0.2260
     91  O         45.4750   28.1930  -29.3990 O.2   165  ALA165     -0.2867
     92  CB        47.8270   25.6270  -29.3860 C.3   165  ALA165      0.0290
     93  N         38.7650   27.5130  -25.1330 N.3   195  GLU195     -0.1231
     94  CA        39.5770   26.3780  -24.7100 C.3   195  GLU195      0.1699
     95  C         39.1920   26.0650  -23.2750 C.2   195  GLU195      0.2592
     96  O         38.7940   26.9620  -22.5420 O.2   195  GLU195     -0.2718
     97  CB        41.0620   26.7430  -24.7350 C.3   195  GLU195      0.0402
     98  CG        41.7560   26.6480  -26.0930 C.3   195  GLU195      0.1161
     99  CD        42.0970   25.2250  -26.4890 C.2   195  GLU195      0.3649
    100  OE1       41.1560   24.4790  -26.8220 O.co2 195  GLU195     -0.2457
    101  OE2       43.2980   24.8610  -26.4740 O.co2 195  GLU195     -0.2457
    102  N         39.2750   24.7890  -22.9170 N.am  196  GLU196     -0.1979
    103  CA        38.9760   24.2630  -21.5830 C.3   196  GLU196      0.1602
    104  C         38.0470   25.0740  -20.6590 C.2   196  GLU196      0.2287
    105  O         38.4390   25.6410  -19.6410 O.2   196  GLU196     -0.2864
    106  CB        40.2890   23.8840  -20.8890 C.3   196  GLU196      0.0415
    107  CG        41.3400   24.9340  -20.9740 C.3   196  GLU196      0.1163
    108  CD        42.6940   24.4470  -20.5210 C.2   196  GLU196      0.3649
    109  OE1       43.0470   23.2770  -20.8180 O.co2 196  GLU196     -0.2457
    110  OE2       43.4150   25.2500  -19.8870 O.co2 196  GLU196     -0.2457
    111  N         38.9390   29.7910  -21.5530 N.3   211  ARG211     -0.1245
    112  CA        40.3060   30.2210  -21.7920 C.3   211  ARG211      0.1563
    113  C         40.3780   30.8730  -23.1910 C.2   211  ARG211      0.2260
    114  O         39.3670   31.0280  -23.8810 O.2   211  ARG211     -0.2867
    115  CB        41.2270   28.9960  -21.7240 C.3   211  ARG211      0.0307
    116  CG        42.7380   29.2240  -21.7740 C.3   211  ARG211      0.0489
    117  CD        43.3420   27.8450  -21.7830 C.3   211  ARG211      0.2205
    118  NE        44.7870   27.7820  -21.6270 N.pl3 211  ARG211     -0.0865
    119  CZ        45.5160   26.6990  -21.8940 C.cat 211  ARG211      0.5346
    120  NH1       44.9400   25.6300  -22.4330 N.pl3 211  ARG211      0.1354
    121  NH2       46.8300   26.7090  -21.7170 N.pl3 211  ARG211      0.1354
    122  N         43.8180   30.9690  -25.6960 N.3   213  ASN213     -0.1240
    123  CA        45.2150   30.7470  -25.9880 C.3   213  ASN213      0.1653
    124  C         45.6800   31.5830  -27.1570 C.2   213  ASN213      0.2266
    125  O         46.8790   31.7090  -27.3980 O.2   213  ASN213     -0.2867
    126  CB        45.4120   29.2820  -26.3430 C.3   213  ASN213      0.1155
    127  CG        46.2770   28.5580  -25.3430 C.2   213  ASN213      0.2627
    128  OD1       46.2050   28.8180  -24.1330 O.2   213  ASN213     -0.2716
    129  ND2       47.1190   27.6520  -25.8370 N.am  213  ASN213     -0.0877
    130  N         52.5030   30.8860  -13.1150 N.3   290  ARG290     -0.1245
    131  CA        51.3560   30.3280  -12.4020 C.3   290  ARG290      0.1563
    132  C         51.4280   30.3410  -10.8740 C.2   290  ARG290      0.2260
    133  O         50.5760   29.7550  -10.2270 O.2   290  ARG290     -0.2867
    134  CB        51.0710   28.9110  -12.8940 C.3   290  ARG290      0.0307
    135  CG        50.3400   28.8180  -14.2330 C.3   290  ARG290      0.0489
    136  CD        50.2750   27.3660  -14.6460 C.3   290  ARG290      0.2205
    137  NE        49.1830   27.0430  -15.5670 N.pl3 290  ARG290     -0.0865
    138  CZ        49.3500   26.5720  -16.8020 C.cat 290  ARG290      0.5346
    139  NH1       50.5710   26.3820  -17.2960 N.pl3 290  ARG290      0.1354
    140  NH2       48.2900   26.3020  -17.5510 N.pl3 290  ARG290      0.1354
    141  N         46.0850   25.1170  -13.1760 N.3   325  TYR325     -0.1241
    142  CA        44.7280   25.0490  -13.6940 C.3   325  TYR325      0.1605
    143  C         43.7280   25.3350  -12.5920 C.2   325  TYR325      0.2264
    144  O         44.0340   25.2170  -11.4010 O.2   325  TYR325     -0.2867
    145  CB        44.4400   23.6640  -14.2620 C.3   325  TYR325      0.0534
    146  CG        44.7970   23.5270  -15.7110 C.ar  325  TYR325     -0.0201
    147  CD1       45.9730   24.0690  -16.2280 C.ar  325  TYR325     -0.0009
    148  CD2       43.9050   22.9410  -16.5960 C.ar  325  TYR325     -0.0009
    149  CE1       46.2260   24.0370  -17.6020 C.ar  325  TYR325      0.0417
    150  CE2       44.1570   22.9080  -17.9550 C.ar  325  TYR325      0.0417
    151  CZ        45.3000   23.4570  -18.4570 C.ar  325  TYR325      0.1957
    152  OH        45.4710   23.4540  -19.8170 O.3   325  TYR325     -0.2866
@<TRIPOS>BOND
     1    60    61    1
     2    88    89    1
     3    61    62    1
     4    61    64    1
     5    65    64    1
     6    65    67    1
     7    62    63    2
     8    90    89    1
     9    90    91    2
    10    89    92    1
    11    64    66    1
    12    78    76    1
    13    77    76    1
    14    76    75    2
    15    39    37    1
    16    68    69    1
    17    75    74    1
    18    51    53   ar
    19    51    49   ar
    20    53    52   ar
    21   125   124    2
    22    37    36    2
    23    37    38    1
    24    36    35    1
    25   124   123    1
    26    74    73    1
    27    73    72    1
    28   100    99   ar
    29    71    70    2
    30    49    48   ar
    31    49    47   ar
    32    99   101   ar
    33    99    98    1
    34    69    72    1
    35    69    70    1
    36    48    46   ar
    37    35    34    1
    38    52    50   ar
    39   126   123    1
    40   126   127    1
    41    98    97    1
    42   123   122    1
    43   129   127   am
    44   127   128    2
    45    47    50   ar
    46    47    45   ar
    47    32    31    2
    48    93    94    1
    49    33    34    1
    50    33    30    1
    51    46    45   ar
    52    97    94    1
    53    94    95    1
    54    45    44    1
    55    31    30    1
    56    30    29    1
    57   114   113    2
    58    29    23   am
    59    95   102   am
    60    95    96    2
    61   113   112    1
    62    59    58    1
    63    58    55    1
    64    28    26   ar
    65   102   103    1
    66    44    41    1
    67    25    26    1
    68    25    22    1
    69    23    22    1
    70    23    24    2
    71   120   119    1
    72    21    22    1
    73    26    27   ar
    74    40    41    1
    75    57    56    2
    76   119   121    1
    77   119   118    2
    78    41    42    1
    79   112   115    1
    80   112   111    1
    81   117   116    1
    82   117   118    1
    83    42    54   am
    84    42    43    2
    85   116   115    1
    86    54    55    1
    87    55    56    1
    88   103   106    1
    89   103   104    1
    90   107   106    1
    91   107   108    1
    92   109   108   ar
    93    87    85   ar
    94   104   105    2
    95    86    85   ar
    96   108   110   ar
    97    85    84    1
    98   152   151    1
    99    79    80    1
   100    84    83    1
   101   151   150   ar
   102   151   149   ar
   103    19    18   ar
   104    83    80    1
   105   150   148   ar
   106    80    81    1
   107    18    20   ar
   108    18    17    1
   109   149   147   ar
   110   140   138    1
   111    17    16    1
   112   139   138    1
   113    10     9    1
   114   138   137    2
   115    81    82    2
   116   148   146   ar
   117    16    13    1
   118   147   146   ar
   119     9    11    1
   120     9     8    2
   121   146   145    1
   122   137   136    1
   123     8     7    1
   124     7     6    1
   125    13    12    1
   126    13    14    1
   127     5     6    1
   128     5     2    1
   129    15    14    2
   130   136   135    1
   131     4     3    2
   132    12     3   am
   133     3     2    1
   134   145   142    1
   135   135   134    1
   136     2     1    1
   137   142   141    1
   138   142   143    1
   139   130   131    1
   140   134   131    1
   141   143   144    2
   142   131   132    1
   143   132   133    2
