@<TRIPOS>MOLECULE
tmp/1inhB02.pdb
 113 113 0 0 0
SMALL
GASTEIGER

@<TRIPOS>ATOM
      1  N         32.5920   -0.2080  -35.6890 N.3    15  GLY15      -0.1210
      2  CA        33.9780   -0.3000  -35.2660 C.3    15  GLY15       0.1956
      3  C         34.0060   -0.2320  -33.7440 C.2    15  GLY15       0.2611
      4  O         32.9690   -0.1630  -33.0700 O.2    15  GLY15      -0.2717
      5  N         35.2030   -0.1350  -33.1940 N.am   16  PHE16      -0.1976
      6  CA        35.3500   -0.1290  -31.7540 C.3    16  PHE16       0.1639
      7  C         35.9330    1.1500  -31.1690 C.2    16  PHE16       0.2290
      8  O         36.9900    1.6190  -31.6170 O.2    16  PHE16      -0.2864
      9  CB        36.1930   -1.3480  -31.3570 C.3    16  PHE16       0.0560
     10  CG        35.6230   -2.6520  -31.8500 C.ar   16  PHE16      -0.0200
     11  CD1       34.4180   -3.1340  -31.3320 C.ar   16  PHE16      -0.0042
     12  CD2       36.2220   -3.3350  -32.9070 C.ar   16  PHE16      -0.0042
     13  CE1       33.8120   -4.2810  -31.8710 C.ar   16  PHE16      -0.0003
     14  CE2       35.6180   -4.4840  -33.4490 C.ar   16  PHE16      -0.0003
     15  CZ        34.4160   -4.9480  -32.9330 C.ar   16  PHE16      -0.0000
     16  N         32.7300   -9.5990  -37.8670 N.3   280  TRP280     -0.1241
     17  CA        33.6460   -8.6580  -37.2160 C.3   280  TRP280      0.1605
     18  C         34.6590   -9.5680  -36.5230 C.2   280  TRP280      0.2264
     19  O         34.2790  -10.6150  -35.9810 O.2   280  TRP280     -0.2867
     20  CB        32.8930   -7.8050  -36.1890 C.3   280  TRP280      0.0550
     21  CG        32.0900   -6.6890  -36.7940 C.ar  280  TRP280      0.0003
     22  CD1       30.7540   -6.6780  -37.0040 C.ar  280  TRP280      0.0946
     23  CD2       32.5770   -5.4060  -37.2480 C.ar  280  TRP280      0.0152
     24  NE1       30.3600   -5.4810  -37.5610 N.ar  280  TRP280     -0.2442
     25  CE2       31.4650   -4.6830  -37.7190 C.ar  280  TRP280      0.0810
     26  CE3       33.8420   -4.8080  -37.2990 C.ar  280  TRP280      0.0012
     27  CZ2       31.5690   -3.3780  -38.2430 C.ar  280  TRP280      0.0191
     28  CZ3       33.9540   -3.5030  -37.8230 C.ar  280  TRP280      0.0001
     29  CH2       32.8220   -2.8090  -38.2860 C.ar  280  TRP280      0.0015
     30  N         41.4940   -5.3660  -35.8190 N.3   295  THR295     -0.1203
     31  CA        40.0910   -5.7690  -35.9360 C.3   295  THR295      0.1994
     32  C         39.5930   -5.3310  -37.3310 C.2   295  THR295      0.2618
     33  O         40.2080   -4.4650  -37.9560 O.2   295  THR295     -0.2717
     34  CB        39.1980   -5.1390  -34.7940 C.3   295  THR295      0.1784
     35  OG1       39.0210   -3.7240  -34.9940 O.3   295  THR295     -0.2211
     36  CG2       39.8260   -5.3810  -33.4510 C.3   295  THR295      0.0376
     37  N         38.5560   -5.9840  -37.8450 N.am  296  PHE296     -0.1961
     38  CA        37.9900   -5.6320  -39.1450 C.3   296  PHE296      0.1771
     39  C         36.8110   -6.4860  -39.4780 C.2   296  PHE296      0.2619
     40  O         36.6390   -7.5560  -38.8920 O.2   296  PHE296     -0.2715
     41  CB        39.0140   -5.7320  -40.2850 C.3   296  PHE296      0.0574
     42  CG        39.7360   -7.0450  -40.3650 C.ar  296  PHE296     -0.0200
     43  CD1       39.1120   -8.1680  -40.8740 C.ar  296  PHE296     -0.0042
     44  CD2       41.0560   -7.1500  -39.9470 C.ar  296  PHE296     -0.0042
     45  CE1       39.7950   -9.3910  -40.9650 C.ar  296  PHE296     -0.0003
     46  CE2       41.7390   -8.3740  -40.0340 C.ar  296  PHE296     -0.0003
     47  CZ        41.1010   -9.4850  -40.5420 C.ar  296  PHE296     -0.0000
     48  N         35.9490   -5.9870  -40.3510 N.am  297  LYS297     -0.1977
     49  CA        34.8030   -6.7730  -40.7740 C.3   297  LYS297      0.1596
     50  C         35.2010   -7.3960  -42.0780 C.2   297  LYS297      0.2287
     51  O         35.8600   -6.7590  -42.8900 O.2   297  LYS297     -0.2864
     52  CB        33.5610   -5.9230  -40.9870 C.3   297  LYS297      0.0298
     53  CG        32.4340   -6.6940  -41.6670 C.3   297  LYS297      0.0038
     54  CD        31.4060   -5.7390  -42.2500 C.3   297  LYS297      0.0206
     55  CE        30.3140   -5.4090  -41.2620 C.3   297  LYS297      0.1093
     56  NZ        29.2230   -4.6090  -41.8890 N.3   297  LYS297     -0.1314
     57  N         38.0830   -7.7040  -46.7580 N.3   310  GLN310     -0.1231
     58  CA        37.8620   -6.8900  -45.5430 C.3   310  GLN310      0.1698
     59  C         37.5490   -5.3970  -45.6420 C.2   310  GLN310      0.2592
     60  O         38.1640   -4.6900  -46.4270 O.2   310  GLN310     -0.2718
     61  CB        39.0480   -7.0500  -44.6040 C.3   310  GLN310      0.0381
     62  CG        40.3900   -6.7450  -45.2250 C.3   310  GLN310      0.0905
     63  CD        41.4740   -6.5890  -44.1740 C.2   310  GLN310      0.2608
     64  OE1       41.1820   -6.6030  -42.9810 O.2   310  GLN310     -0.2717
     65  NE2       42.7370   -6.4370  -44.6070 N.am  310  GLN310     -0.0878
     66  N         36.6260   -4.9200  -44.8130 N.am  311  ILE311     -0.1966
     67  CA        36.2900   -3.4940  -44.7410 C.3   311  ILE311      0.1727
     68  C         36.3000   -3.1040  -43.2480 C.2   311  ILE311      0.2616
     69  O         35.9390   -3.9220  -42.3950 O.2   311  ILE311     -0.2715
     70  CB        34.8700   -3.1950  -45.3240 C.3   311  ILE311      0.0290
     71  CG1       34.6160   -1.6840  -45.4370 C.3   311  ILE311      0.0022
     72  CG2       33.7980   -3.7600  -44.3970 C.3   311  ILE311      0.0023
     73  CD1       35.6380   -0.9260  -46.2740 C.3   311  ILE311      0.0001
     74  N         36.6960   -1.8680  -42.9460 N.am  312  ASN312     -0.1958
     75  CA        36.7410   -1.3370  -41.5580 C.3   312  ASN312      0.1819
     76  C         37.7810   -1.9490  -40.5970 C.2   312  ASN312      0.2621
     77  O         37.4300   -2.6980  -39.6780 O.2   312  ASN312     -0.2715
     78  CB        35.3540   -1.3720  -40.8760 C.3   312  ASN312      0.1195
     79  CG        34.3410   -0.4640  -41.5430 C.2   312  ASN312      0.2630
     80  OD1       33.1850   -0.8450  -41.6940 O.2   312  ASN312     -0.2716
     81  ND2       34.7630    0.7510  -41.9430 N.am  312  ASN312     -0.0877
     82  N         39.0500   -1.5930  -40.7890 N.am  313  ARG313     -0.1963
     83  CA        40.1260   -2.1140  -39.9480 C.3   313  ARG313      0.1729
     84  C         40.6020   -1.0820  -38.9580 C.2   313  ARG313      0.2616
     85  O         40.5940    0.1230  -39.2410 O.2   313  ARG313     -0.2715
     86  CB        41.3020   -2.5690  -40.7910 C.3   313  ARG313      0.0348
     87  CG        42.4990   -2.9190  -39.9980 C.3   313  ARG313      0.0492
     88  CD        43.6040   -3.1770  -40.9050 C.3   313  ARG313      0.2205
     89  NE        44.8210   -2.5420  -40.4410 N.pl3 313  ARG313     -0.0865
     90  CZ        45.9360   -3.2140  -40.1790 C.cat 313  ARG313      0.5346
     91  NH1       45.9510   -4.5260  -40.3450 N.pl3 313  ARG313      0.1354
     92  NH2       47.0460   -2.5880  -39.7720 N.pl3 313  ARG313      0.1354
     93  N         41.0550   -1.5790  -37.8160 N.am  314  GLN314     -0.1977
     94  CA        41.5570   -0.7420  -36.7580 C.3   314  GLN314      0.1601
     95  C         42.7510   -1.4230  -36.1080 C.2   314  GLN314      0.2287
     96  O         42.7290   -2.6320  -35.8880 O.2   314  GLN314     -0.2864
     97  CB        40.4510   -0.5070  -35.7090 C.3   314  GLN314      0.0394
     98  CG        39.2720    0.3580  -36.1600 C.3   314  GLN314      0.0908
     99  CD        38.1170    0.3590  -35.1680 C.2   314  GLN314      0.2608
    100  OE1       37.1140   -0.3000  -35.3920 O.2   314  GLN314     -0.2717
    101  NE2       38.2520    1.1120  -34.0730 N.am  314  GLN314     -0.0878
    102  N         34.9080    7.2890  -35.3950 N.3   372  TYR372     -0.1241
    103  CA        36.1240    7.1170  -34.5820 C.3   372  TYR372      0.1605
    104  C         37.4070    7.5790  -35.2680 C.2   372  TYR372      0.2264
    105  O         37.3700    8.1020  -36.3900 O.2   372  TYR372     -0.2867
    106  CB        36.2790    5.6870  -34.0720 C.3   372  TYR372      0.0534
    107  CG        36.1050    4.6090  -35.1150 C.ar  372  TYR372     -0.0201
    108  CD1       37.1850    4.1460  -35.8570 C.ar  372  TYR372     -0.0009
    109  CD2       34.8560    4.0620  -35.3620 C.ar  372  TYR372     -0.0009
    110  CE1       37.0170    3.1540  -36.8310 C.ar  372  TYR372      0.0417
    111  CE2       34.6710    3.0780  -36.3230 C.ar  372  TYR372      0.0417
    112  CZ        35.7520    2.6200  -37.0740 C.ar  372  TYR372      0.1957
    113  OH        35.5460    1.7010  -38.0920 O.3   372  TYR372     -0.2866
@<TRIPOS>BOND
     1    57    58    1
     2    60    59    2
     3    73    71    1
     4    59    58    1
     5    59    66   am
     6    58    61    1
     7    71    70    1
     8    70    67    1
     9    70    72    1
    10    62    61    1
    11    62    63    1
    12    66    67    1
    13    67    68    1
    14    65    63   am
    15    63    64    2
    16    68    74   am
    17    68    69    2
    18    74    75    1
    19    51    50    2
    20    54    53    1
    21    54    55    1
    22    50    49    1
    23    81    79   am
    24    56    55    1
    25    80    79    2
    26    53    52    1
    27    75    78    1
    28    75    76    1
    29    79    78    1
    30    52    49    1
    31    45    43   ar
    32    45    47   ar
    33    88    89    1
    34    88    87    1
    35    43    42   ar
    36    86    87    1
    37    86    83    1
    38    82    76   am
    39    82    83    1
    40    49    48    1
    41    76    77    2
    42    47    46   ar
    43    89    90    2
    44    42    41    1
    45    42    44   ar
    46    48    39   am
    47    91    90    1
    48    41    38    1
    49    90    92    1
    50    46    44   ar
    51    83    84    1
    52    39    38    1
    53    39    40    2
    54    85    84    2
    55    38    37    1
    56    84    93   am
    57    29    27   ar
    58    29    28   ar
    59    27    25   ar
    60   113   112    1
    61    33    32    2
    62    16    17    1
    63    37    32   am
    64    28    26   ar
    65    93    94    1
    66    25    24   ar
    67    25    23   ar
    68    24    22   ar
    69    32    31    1
    70    26    23   ar
    71    23    21   ar
    72    17    18    1
    73    17    20    1
    74   112   110   ar
    75   112   111   ar
    76    22    21   ar
    77   110   108   ar
    78    21    20    1
    79    94    95    1
    80    94    97    1
    81    18    19    2
    82   105   104    2
    83   111   109   ar
    84    98    97    1
    85    98    99    1
    86    95    96    2
    87    31    30    1
    88    31    34    1
    89   108   107   ar
    90     1     2    1
    91   102   103    1
    92   100    99    2
    93   109   107   ar
    94   104   103    1
    95     2     3    1
    96    99   101   am
    97   107   106    1
    98    35    34    1
    99    34    36    1
   100   103   106    1
   101     3     5   am
   102     3     4    2
   103    14    15   ar
   104    14    12   ar
   105     5     6    1
   106    15    13   ar
   107    12    10   ar
   108    13    11   ar
   109    10     9    1
   110    10    11   ar
   111     6     9    1
   112     6     7    1
   113     8     7    2
