@<TRIPOS>MOLECULE
tmp/1inhA03.pdb
 152 143 0 0 0
SMALL
GASTEIGER

@<TRIPOS>ATOM
      1  N         47.7340   15.4610  -13.3730 N.3    37  ARG37      -0.1231
      2  CA        47.6960   16.8570  -13.8030 C.3    37  ARG37       0.1694
      3  C         46.3150   17.0970  -14.2780 C.2    37  ARG37       0.2591
      4  O         45.4970   16.1870  -14.2090 O.2    37  ARG37      -0.2718
      5  CB        48.7600   17.2670  -14.8180 C.3    37  ARG37       0.0321
      6  CG        49.8300   18.1930  -14.1820 C.3    37  ARG37       0.0489
      7  CD        50.1270   19.4550  -14.9630 C.3    37  ARG37       0.2205
      8  NE        48.9510   20.3020  -15.1870 N.pl3  37  ARG37      -0.0865
      9  CZ        48.8450   21.1560  -16.2140 C.cat  37  ARG37       0.5346
     10  NH1       49.8410   21.2690  -17.0920 N.pl3  37  ARG37       0.1354
     11  NH2       47.7520   21.8980  -16.3830 N.pl3  37  ARG37       0.1354
     12  N         46.0050   18.3390  -14.6110 N.am   38  GLU38      -0.1979
     13  CA        44.6620   18.6650  -15.0750 C.3    38  GLU38       0.1602
     14  C         43.5850   18.0480  -14.1920 C.2    38  GLU38       0.2287
     15  O         42.8880   17.1500  -14.6270 O.2    38  GLU38      -0.2864
     16  CB        44.4410   18.1910  -16.5240 C.3    38  GLU38       0.0415
     17  CG        45.2760   18.9050  -17.5670 C.3    38  GLU38       0.1163
     18  CD        46.4930   18.1150  -17.9610 C.2    38  GLU38       0.3649
     19  OE1       46.3630   16.8860  -18.1530 O.co2  38  GLU38      -0.2457
     20  OE2       47.5750   18.7220  -18.0800 O.co2  38  GLU38      -0.2457
     21  N         51.9880   16.2250  -22.3910 N.3    70  ASP70      -0.1225
     22  CA        50.5610   16.2100  -22.1500 C.3    70  ASP70       0.1805
     23  C         49.7970   14.9870  -22.6080 C.2    70  ASP70       0.2597
     24  O         48.7490   14.6760  -22.0280 O.2    70  ASP70      -0.2718
     25  CB        49.9010   17.4460  -22.7760 C.3    70  ASP70       0.1424
     26  CG        50.3820   18.7570  -22.1640 C.2    70  ASP70       0.3668
     27  OD1       50.6440   18.7850  -20.9370 O.co2  70  ASP70      -0.2456
     28  OD2       50.4990   19.7640  -22.9190 O.co2  70  ASP70      -0.2456
     29  N         50.2410   14.3650  -23.7060 N.am   71  ARG71      -0.1979
     30  CA        49.5180   13.2170  -24.2590 C.3    71  ARG71       0.1597
     31  C         50.3050   11.9140  -24.4670 C.2    71  ARG71       0.2287
     32  O         51.3960   11.9310  -25.0250 O.2    71  ARG71      -0.2864
     33  CB        48.8780   13.5960  -25.5920 C.3    71  ARG71       0.0334
     34  CG        47.8090   14.7050  -25.5720 C.3    71  ARG71       0.0492
     35  CD        47.4910   15.2540  -27.0040 C.3    71  ARG71       0.2205
     36  NE        48.1260   16.5520  -27.3040 N.pl3  71  ARG71      -0.0865
     37  CZ        49.3830   16.7330  -27.7190 C.cat  71  ARG71       0.5346
     38  NH1       50.1950   15.7170  -27.9200 N.pl3  71  ARG71       0.1354
     39  NH2       49.8610   17.9570  -27.8700 N.pl3  71  ARG71       0.1354
     40  N         43.1790   11.7730  -22.3640 N.3    97  TRP97      -0.1227
     41  CA        44.1710   12.8350  -22.1890 C.3    97  TRP97       0.1737
     42  C         43.4390   14.1780  -22.0790 C.2    97  TRP97       0.2596
     43  O         43.9720   15.1460  -21.5450 O.2    97  TRP97      -0.2718
     44  CB        45.3340   12.8620  -23.2210 C.3    97  TRP97       0.0564
     45  CG        45.0820   12.5460  -24.6920 C.ar   97  TRP97       0.0003
     46  CD1       45.5050   11.4300  -25.3570 C.ar   97  TRP97       0.0946
     47  CD2       44.4940   13.4010  -25.7080 C.ar   97  TRP97       0.0152
     48  NE1       45.2420   11.5330  -26.7050 N.ar   97  TRP97      -0.2442
     49  CE2       44.6220   12.7280  -26.9410 C.ar   97  TRP97       0.0810
     50  CE3       43.8760   14.6630  -25.6750 C.ar   97  TRP97       0.0012
     51  CZ2       44.1590   13.2720  -28.1440 C.ar   97  TRP97       0.0191
     52  CZ3       43.4110   15.2020  -26.8760 C.ar   97  TRP97       0.0001
     53  CH2       43.5570   14.5030  -28.0920 C.ar   97  TRP97       0.0015
     54  N         42.1760   14.1780  -22.4810 N.am   98  SER98      -0.1952
     55  CA        41.3400   15.3580  -22.4070 C.3    98  SER98       0.1924
     56  C         40.0410   14.8130  -21.8060 C.2    98  SER98       0.2314
     57  O         39.6630   13.6800  -22.1270 O.2    98  SER98      -0.2863
     58  CB        41.1510   15.9170  -23.8150 C.3    98  SER98       0.2116
     59  OG        40.5430   17.2010  -23.7940 O.3    98  SER98      -0.2180
     60  N         44.4870   17.9310  -32.6940 N.3   141  ILE141     -0.1245
     61  CA        44.3090   17.6710  -31.2630 C.3   141  ILE141      0.1561
     62  C         42.9900   17.9710  -30.5770 C.2   141  ILE141      0.2260
     63  O         42.9660   18.7120  -29.6110 O.2   141  ILE141     -0.2867
     64  CB        45.4120   18.3140  -30.4310 C.3   141  ILE141      0.0252
     65  CG1       46.7650   18.1540  -31.1060 C.3   141  ILE141      0.0019
     66  CG2       45.5340   17.5920  -29.1170 C.3   141  ILE141      0.0019
     67  CD1       47.8950   18.7470  -30.2720 C.3   141  ILE141      0.0001
     68  N         40.1410   18.5630  -28.2770 N.3   143  ARG143     -0.1245
     69  CA        40.1000   18.6650  -26.8210 C.3   143  ARG143      0.1563
     70  C         38.7600   19.1090  -26.2120 C.2   143  ARG143      0.2260
     71  O         37.8620   19.5240  -26.9460 O.2   143  ARG143     -0.2867
     72  CB        41.2520   19.5390  -26.3250 C.3   143  ARG143      0.0307
     73  CG        42.0740   20.2520  -27.3900 C.3   143  ARG143      0.0489
     74  CD        41.3800   21.5080  -27.8670 C.3   143  ARG143      0.2205
     75  NE        42.2800   22.4270  -28.5630 N.pl3 143  ARG143     -0.0865
     76  CZ        42.5500   22.3740  -29.8660 C.cat 143  ARG143      0.5346
     77  NH1       41.9970   21.4310  -30.6230 N.pl3 143  ARG143      0.1354
     78  NH2       43.3350   23.2990  -30.4210 N.pl3 143  ARG143      0.1354
     79  N         37.8810   20.0950  -19.6980 N.3   146  GLU146     -0.1245
     80  CA        38.9210   19.8680  -18.7070 C.3   146  GLU146      0.1567
     81  C         38.4180   20.0840  -17.2730 C.2   146  GLU146      0.2260
     82  O         39.1960   20.1530  -16.3280 O.2   146  GLU146     -0.2867
     83  CB        40.1540   20.7120  -19.0300 C.3   146  GLU146      0.0388
     84  CG        41.4930   19.9490  -19.0100 C.3   146  GLU146      0.1160
     85  CD        41.6150   18.8070  -20.0710 C.2   146  GLU146      0.3649
     86  OE1       40.6610   18.0040  -20.2180 O.co2 146  GLU146     -0.2457
     87  OE2       42.6860   18.7010  -20.7440 O.co2 146  GLU146     -0.2457
     88  N         45.8480   25.6760  -31.4850 N.3   165  ALA165     -0.1245
     89  CA        45.8550   26.4180  -30.1980 C.3   165  ALA165      0.1562
     90  C         46.1450   27.9060  -30.3660 C.2   165  ALA165      0.2260
     91  O         45.4430   28.7380  -29.8040 O.2   165  ALA165     -0.2867
     92  CB        46.8600   25.8060  -29.2250 C.3   165  ALA165      0.0290
     93  N         38.9340   27.8920  -25.6770 N.3   195  GLU195     -0.1231
     94  CA        39.5220   26.6500  -25.1910 C.3   195  GLU195      0.1699
     95  C         39.1140   26.5360  -23.7120 C.2   195  GLU195      0.2592
     96  O         38.4560   27.4460  -23.1760 O.2   195  GLU195     -0.2718
     97  CB        41.0260   26.6410  -25.3530 C.3   195  GLU195      0.0402
     98  CG        41.4890   26.3430  -26.7600 C.3   195  GLU195      0.1161
     99  CD        42.9520   25.9370  -26.7910 C.2   195  GLU195      0.3649
    100  OE1       43.6920   26.3610  -25.8800 O.co2 195  GLU195     -0.2457
    101  OE2       43.3810   25.1790  -27.6940 O.co2 195  GLU195     -0.2457
    102  N         39.3480   25.3480  -23.1450 N.am  196  GLU196     -0.1979
    103  CA        39.0970   24.9780  -21.7330 C.3   196  GLU196      0.1602
    104  C         37.9740   25.6500  -20.9190 C.2   196  GLU196      0.2287
    105  O         38.2170   26.2050  -19.8470 O.2   196  GLU196     -0.2864
    106  CB        40.4330   25.0150  -21.0060 C.3   196  GLU196      0.0415
    107  CG        41.3930   24.0260  -21.6230 C.3   196  GLU196      0.1163
    108  CD        42.7750   24.0540  -21.0540 C.2   196  GLU196      0.3649
    109  OE1       43.3090   25.1480  -20.8310 O.co2 196  GLU196     -0.2457
    110  OE2       43.3350   22.9640  -20.8500 O.co2 196  GLU196     -0.2457
    111  N         39.1340   30.0630  -22.3380 N.3   211  ARG211     -0.1245
    112  CA        40.5460   30.4100  -22.5350 C.3   211  ARG211      0.1563
    113  C         40.9860   30.8080  -23.9550 C.2   211  ARG211      0.2260
    114  O         41.3230   29.9440  -24.7710 O.2   211  ARG211     -0.2867
    115  CB        41.4300   29.2540  -22.0470 C.3   211  ARG211      0.0307
    116  CG        42.9090   29.3690  -22.3720 C.3   211  ARG211      0.0489
    117  CD        43.5830   28.0290  -22.1810 C.3   211  ARG211      0.2205
    118  NE        44.9660   28.0420  -22.6500 N.pl3 211  ARG211     -0.0865
    119  CZ        45.9320   27.2260  -22.2200 C.cat 211  ARG211      0.5346
    120  NH1       45.6940   26.3070  -21.2960 N.pl3 211  ARG211      0.1354
    121  NH2       47.1460   27.2980  -22.7430 N.pl3 211  ARG211      0.1354
    122  N         43.4790   31.3300  -26.2370 N.3   213  ASN213     -0.1240
    123  CA        44.8890   30.9730  -26.3250 C.3   213  ASN213      0.1653
    124  C         45.6590   31.5910  -27.4950 C.2   213  ASN213      0.2266
    125  O         46.8680   31.3840  -27.6280 O.2   213  ASN213     -0.2867
    126  CB        45.0280   29.4480  -26.3750 C.3   213  ASN213      0.1155
    127  CG        46.1820   28.9380  -25.5120 C.2   213  ASN213      0.2627
    128  OD1       46.3490   29.3700  -24.3810 O.2   213  ASN213     -0.2716
    129  ND2       46.9870   28.0240  -26.0480 N.am  213  ASN213     -0.0877
    130  N         52.3140   31.2460  -13.5000 N.3   290  ARG290     -0.1245
    131  CA        51.1680   30.7090  -12.7550 C.3   290  ARG290      0.1563
    132  C         51.6580   30.5150  -11.3110 C.2   290  ARG290      0.2260
    133  O         51.9600   29.3900  -10.9080 O.2   290  ARG290     -0.2867
    134  CB        50.7620   29.3520  -13.3200 C.3   290  ARG290      0.0307
    135  CG        50.0810   29.3860  -14.6470 C.3   290  ARG290      0.0489
    136  CD        50.2240   28.0430  -15.3280 C.3   290  ARG290      0.2205
    137  NE        49.3230   27.9060  -16.4730 N.pl3 290  ARG290     -0.0865
    138  CZ        49.3100   26.8660  -17.3060 C.cat 290  ARG290      0.5346
    139  NH1       50.1590   25.8470  -17.1380 N.pl3 290  ARG290      0.1354
    140  NH2       48.4690   26.8620  -18.3360 N.pl3 290  ARG290      0.1354
    141  N         46.2500   25.4220  -13.4830 N.3   325  TYR325     -0.1241
    142  CA        44.8550   25.3250  -13.8930 C.3   325  TYR325      0.1605
    143  C         43.9070   25.5560  -12.7230 C.2   325  TYR325      0.2264
    144  O         44.3160   25.5610  -11.5510 O.2   325  TYR325     -0.2867
    145  CB        44.5860   23.9430  -14.4900 C.3   325  TYR325      0.0534
    146  CG        44.9380   23.8340  -15.9480 C.ar  325  TYR325     -0.0201
    147  CD1       46.0160   24.5330  -16.4830 C.ar  325  TYR325     -0.0009
    148  CD2       44.1670   23.0590  -16.8040 C.ar  325  TYR325     -0.0009
    149  CE1       46.3170   24.4660  -17.8630 C.ar  325  TYR325      0.0417
    150  CE2       44.4620   22.9860  -18.1710 C.ar  325  TYR325      0.0417
    151  CZ        45.5360   23.6960  -18.7070 C.ar  325  TYR325      0.1957
    152  OH        45.7810   23.6750  -20.0590 O.3   325  TYR325     -0.2866
@<TRIPOS>BOND
     1    60    61    1
     2    88    89    1
     3    61    62    1
     4    61    64    1
     5    65    64    1
     6    65    67    1
     7    77    76    1
     8    62    63    2
     9    64    66    1
    10    78    76    1
    11    90    89    1
    12    90    91    2
    13    89    92    1
    14    76    75    2
    15    75    74    1
    16    68    69    1
    17    51    53   ar
    18    51    49   ar
    19    53    52   ar
    20    38    37    1
    21    39    37    1
    22    74    73    1
    23    37    36    2
    24   101    99   ar
    25   125   124    2
    26   124   123    1
    27    73    72    1
    28    36    35    1
    29    35    34    1
    30    71    70    2
    31    49    48   ar
    32    49    47   ar
    33    52    50   ar
    34    69    72    1
    35    69    70    1
    36    99    98    1
    37    99   100   ar
    38    98    97    1
    39    48    46   ar
    40   126   123    1
    41   126   127    1
    42   123   122    1
    43   129   127   am
    44    47    50   ar
    45    47    45   ar
    46    93    94    1
    47    33    34    1
    48    33    30    1
    49   127   128    2
    50    46    45   ar
    51    97    94    1
    52    94    95    1
    53    32    31    2
    54   114   113    2
    55    45    44    1
    56    31    30    1
    57    30    29    1
    58   113   112    1
    59    58    59    1
    60    58    55    1
    61    95    96    2
    62    95   102   am
    63    29    23   am
    64    44    41    1
    65   102   103    1
    66    28    26   ar
    67    25    26    1
    68    25    22    1
    69   121   119    1
    70   118   119    2
    71   118   117    1
    72    23    22    1
    73    23    24    2
    74   112   111    1
    75   112   115    1
    76    54    55    1
    77    54    42   am
    78    55    56    1
    79    21    22    1
    80   116   117    1
    81   116   115    1
    82    40    41    1
    83   119   120    1
    84    41    42    1
    85    26    27   ar
    86    57    56    2
    87    42    43    2
    88   103   106    1
    89   103   104    1
    90   107   108    1
    91   107   106    1
    92   108   110   ar
    93   108   109   ar
    94   104   105    2
    95    87    85   ar
    96    86    85   ar
    97    85    84    1
    98   152   151    1
    99    79    80    1
   100    83    84    1
   101    83    80    1
   102   151   150   ar
   103   151   149   ar
   104    80    81    1
   105   140   138    1
   106   150   148   ar
   107    19    18   ar
   108    20    18   ar
   109    18    17    1
   110   149   147   ar
   111    17    16    1
   112   138   139    1
   113   138   137    2
   114    81    82    2
   115    10     9    1
   116   148   146   ar
   117    16    13    1
   118   147   146   ar
   119   137   136    1
   120    11     9    1
   121     9     8    2
   122   146   145    1
   123   136   135    1
   124     8     7    1
   125    13    12    1
   126    13    14    1
   127     7     6    1
   128     5     6    1
   129     5     2    1
   130   135   134    1
   131    15    14    2
   132    12     3   am
   133   145   142    1
   134     3     4    2
   135     3     2    1
   136   142   141    1
   137   142   143    1
   138     2     1    1
   139   130   131    1
   140   134   131    1
   141   131   132    1
   142   143   144    2
   143   132   133    2
