@<TRIPOS>MOLECULE
tmp/1iniA00.pdb
 177 167 0 0 0
SMALL
GASTEIGER

@<TRIPOS>ATOM
      1  N         44.4350  -13.7910   28.0880 N.3    10  PRO10      -0.2102
      2  CA        44.9430  -14.1510   29.4110 C.3    10  PRO10       0.1504
      3  C         45.8070  -12.9870   29.9080 C.2    10  PRO10       0.2576
      4  O         46.8080  -12.6380   29.2850 O.2    10  PRO10      -0.2718
      5  CB        45.7420  -15.4400   29.1440 C.3    10  PRO10       0.0282
      6  CG        46.1560  -15.3360   27.6880 C.3    10  PRO10       0.0208
      7  CD        44.9140  -14.7250   27.0500 C.3    10  PRO10       0.0893
      8  N         45.3890  -12.3760   31.0090 N.am   11  ALA11      -0.1966
      9  CA        46.0930  -11.2330   31.5820 C.3    11  ALA11       0.1728
     10  C         46.1170  -11.3150   33.1040 C.2    11  ALA11       0.2616
     11  O         46.0510  -10.2890   33.7880 O.2    11  ALA11      -0.2715
     12  CB        45.4030   -9.9470   31.1570 C.3    11  ALA11       0.0334
     13  N         46.2130  -12.5310   33.6250 N.am   12  ALA12      -0.1963
     14  CA        46.2030  -12.7450   35.0640 C.3    12  ALA12       0.1728
     15  C         47.5960  -12.9840   35.6250 C.2    12  ALA12       0.2616
     16  O         47.7440  -13.2900   36.8030 O.2    12  ALA12      -0.2715
     17  CB        45.2930  -13.9190   35.4000 C.3    12  ALA12       0.0334
     18  N         48.6070  -12.8470   34.7720 N.am   13  GLY13      -0.1955
     19  CA        49.9730  -13.0430   35.2080 C.3    13  GLY13       0.1869
     20  C         50.4450  -11.9300   36.1270 C.2    13  GLY13       0.2309
     21  O         50.1050  -10.7590   35.9350 O.2    13  GLY13      -0.2863
     22  N         59.0800  -11.2150   36.6850 N.3    17  ARG17      -0.1245
     23  CA        60.2260  -11.3140   35.7910 C.3    17  ARG17       0.1563
     24  C         60.3020   -9.8880   35.2560 C.2    17  ARG17       0.2260
     25  O         61.0810   -9.5630   34.3550 O.2    17  ARG17      -0.2867
     26  CB        59.9690  -12.3140   34.6550 C.3    17  ARG17       0.0307
     27  CG        60.3040  -13.7560   35.0190 C.3    17  ARG17       0.0489
     28  CD        60.0810  -14.6950   33.8490 C.3    17  ARG17       0.2205
     29  NE        58.6690  -14.7580   33.4710 N.pl3  17  ARG17      -0.0865
     30  CZ        58.1970  -15.4420   32.4340 C.cat  17  ARG17       0.5346
     31  NH1       59.0210  -16.1320   31.6540 N.pl3  17  ARG17       0.1354
     32  NH2       56.8970  -15.4360   32.1780 N.pl3  17  ARG17       0.1354
     33  N         53.3610   -6.0820   33.9630 N.3    24  LYS24      -0.1231
     34  CA        53.8120   -5.6890   32.6380 C.3    24  LYS24       0.1693
     35  C         52.6650   -5.2250   31.7350 C.2    24  LYS24       0.2591
     36  O         52.8130   -4.2560   30.9810 O.2    24  LYS24      -0.2718
     37  CB        54.5540   -6.8640   31.9950 C.3    24  LYS24       0.0285
     38  CG        53.7920   -8.1850   32.0890 C.3    24  LYS24       0.0035
     39  CD        54.6720   -9.3900   31.7780 C.3    24  LYS24       0.0206
     40  CE        53.9140  -10.6950   32.0030 C.3    24  LYS24       0.1093
     41  NZ        54.7620  -11.8850   31.7220 N.3    24  LYS24      -0.1314
     42  N         51.5190   -5.8990   31.8120 N.am   25  GLN25      -0.1979
     43  CA        50.3860   -5.5120   30.9660 C.3    25  GLN25       0.1601
     44  C         49.8300   -4.1290   31.3090 C.2    25  GLN25       0.2287
     45  O         49.1370   -3.4980   30.4970 O.2    25  GLN25      -0.2864
     46  CB        49.2520   -6.5510   31.0310 C.3    25  GLN25       0.0394
     47  CG        48.6540   -6.7820   32.4220 C.3    25  GLN25       0.0908
     48  CD        49.3860   -7.8550   33.2060 C.2    25  GLN25       0.2608
     49  OE1       50.6170   -7.8750   33.2590 O.2    25  GLN25      -0.2717
     50  NE2       48.6300   -8.7510   33.8250 N.am   25  GLN25      -0.0878
     51  N         43.5860  -18.0440   36.3630 N.3    79  GLY79      -0.1210
     52  CA        44.0320  -19.1090   37.2610 C.3    79  GLY79       0.1956
     53  C         45.5170  -19.1090   37.5910 C.2    79  GLY79       0.2612
     54  O         46.2100  -18.1400   37.3070 O.2    79  GLY79      -0.2717
     55  N         46.0220  -20.2040   38.1620 N.am   80  ASP80      -0.1959
     56  CA        47.4270  -20.2700   38.5490 C.3    80  ASP80       0.1840
     57  C         48.4090  -20.1420   37.4030 C.2    80  ASP80       0.2622
     58  O         49.4110  -19.4390   37.5160 O.2    80  ASP80      -0.2715
     59  CB        47.7180  -21.5640   39.3120 C.3    80  ASP80       0.1450
     60  CG        46.8060  -21.7510   40.5100 C.2    80  ASP80       0.3671
     61  OD1       46.3990  -20.7260   41.1050 O.co2  80  ASP80      -0.2456
     62  OD2       46.5120  -22.9200   40.8600 O.co2  80  ASP80      -0.2456
     63  N         48.1370  -20.8410   36.3080 N.am   81  GLU81      -0.1963
     64  CA        49.0070  -20.7870   35.1430 C.3    81  GLU81       0.1733
     65  C         48.2350  -20.2030   33.9610 C.2    81  GLU81       0.2616
     66  O         47.0040  -20.0410   34.0140 O.2    81  GLU81      -0.2715
     67  CB        49.5130  -22.1890   34.7980 C.3    81  GLU81       0.0429
     68  CG        50.4060  -22.8090   35.8620 C.3    81  GLU81       0.1163
     69  CD        51.6740  -22.0100   36.0730 C.2    81  GLU81       0.3649
     70  OE1       52.4150  -21.7980   35.0920 O.co2  81  GLU81      -0.2457
     71  OE2       51.9360  -21.5890   37.2180 O.co2  81  GLU81      -0.2457
     72  N         48.9560  -19.8920   32.8890 N.am   82  ARG82      -0.1977
     73  CA        48.3200  -19.3110   31.7010 C.3    82  ARG82       0.1597
     74  C         47.1830  -20.1950   31.1940 C.2    82  ARG82       0.2287
     75  O         46.0850  -19.7110   30.9360 O.2    82  ARG82      -0.2864
     76  CB        49.3540  -19.1120   30.5870 C.3    82  ARG82       0.0334
     77  CG        48.7950  -18.4600   29.3140 C.3    82  ARG82       0.0492
     78  CD        49.9030  -18.2480   28.2810 C.3    82  ARG82       0.2205
     79  NE        49.3880  -17.6370   27.0500 N.pl3  82  ARG82      -0.0865
     80  CZ        48.6920  -18.2930   26.1300 C.cat  82  ARG82       0.5346
     81  NH1       48.4370  -19.5830   26.3000 N.pl3  82  ARG82       0.1354
     82  NH2       48.2380  -17.6620   25.0540 N.pl3  82  ARG82       0.1354
     83  N         44.0450  -19.6350   33.1090 N.3    85  SER85      -0.1217
     84  CA        43.3830  -18.3630   32.8310 C.3    85  SER85       0.1889
     85  C         42.6650  -18.4500   31.4790 C.2    85  SER85       0.2288
     86  O         41.5490  -17.9530   31.3250 O.2    85  SER85      -0.2866
     87  CB        44.4100  -17.2310   32.8160 C.3    85  SER85       0.2089
     88  OG        45.1180  -17.1660   34.0500 O.3    85  SER85      -0.2183
     89  N         47.8430  -13.2670   23.9370 N.3   103  ASP103     -0.1225
     90  CA        48.5100  -12.7940   25.1560 C.3   103  ASP103      0.1805
     91  C         48.3060  -11.2950   25.3840 C.2   103  ASP103      0.2598
     92  O         48.4510  -10.4760   24.4560 O.2   103  ASP103     -0.2718
     93  CB        50.0390  -13.0010   25.1050 C.3   103  ASP103      0.1424
     94  CG        50.4500  -14.4620   25.0860 C.2   103  ASP103      0.3668
     95  OD1       49.7370  -15.2980   25.6730 O.co2 103  ASP103     -0.2456
     96  OD2       51.5060  -14.7640   24.4870 O.co2 103  ASP103     -0.2456
     97  N         47.9730  -10.9080   26.6120 N.am  104  ALA104     -0.1966
     98  CA        47.8050   -9.4760   26.8870 C.3   104  ALA104      0.1728
     99  C         49.1430   -8.7540   26.6520 C.2   104  ALA104      0.2616
    100  O         49.1840   -7.5790   26.2740 O.2   104  ALA104     -0.2715
    101  CB        47.3760   -9.2840   28.3080 C.3   104  ALA104      0.0334
    102  N         50.2300   -9.4950   26.8470 N.am  105  ALA105     -0.1963
    103  CA        51.5960   -8.9730   26.7290 C.3   105  ALA105      0.1728
    104  C         52.1910   -8.8150   25.3260 C.2   105  ALA105      0.2616
    105  O         53.3920   -8.5370   25.1780 O.2   105  ALA105     -0.2715
    106  CB        52.5110   -9.8280   27.5710 C.3   105  ALA105      0.0334
    107  N         51.3770   -9.0170   24.2970 N.am  106  ARG106     -0.1977
    108  CA        51.8500   -8.8600   22.9280 C.3   106  ARG106      0.1597
    109  C         51.0560   -7.7300   22.2880 C.2   106  ARG106      0.2287
    110  O         50.1290   -7.9710   21.5290 O.2   106  ARG106     -0.2864
    111  CB        51.6670  -10.1600   22.1390 C.3   106  ARG106      0.0334
    112  CG        52.6300  -11.2830   22.5110 C.3   106  ARG106      0.0492
    113  CD        52.3640  -12.4930   21.6270 C.3   106  ARG106      0.2205
    114  NE        53.1340  -13.6770   22.0280 N.pl3 106  ARG106     -0.0865
    115  CZ        54.4200  -13.8740   21.7550 C.cat 106  ARG106      0.5346
    116  NH1       55.1150  -12.9650   21.0710 N.pl3 106  ARG106      0.1354
    117  NH2       55.0140  -14.9880   22.1580 N.pl3 106  ARG106      0.1354
    118  N         56.3520  -19.9120   18.3060 N.3   160  ALA160     -0.1231
    119  CA        54.9040  -19.8000   18.3410 C.3   160  ALA160      0.1694
    120  C         54.5740  -18.4110   18.9130 C.2   160  ALA160      0.2592
    121  O         55.1600  -17.9790   19.9190 O.2   160  ALA160     -0.2718
    122  CB        54.3100  -20.8980   19.2120 C.3   160  ALA160      0.0304
    123  N         53.6580  -17.7040   18.2630 N.am  161  LEU161     -0.1966
    124  CA        53.2520  -16.3870   18.7270 C.3   161  LEU161      0.1728
    125  C         51.7440  -16.4750   18.9910 C.2   161  LEU161      0.2616
    126  O         51.1800  -17.5630   19.0310 O.2   161  LEU161     -0.2715
    127  CB        53.5160  -15.3580   17.6280 C.3   161  LEU161      0.0311
    128  CG        54.9450  -15.3310   17.0600 C.3   161  LEU161      0.0022
    129  CD1       55.0040  -14.4190   15.8510 C.3   161  LEU161      0.0001
    130  CD2       55.9300  -14.8530   18.1320 C.3   161  LEU161      0.0001
    131  N         51.0970  -15.3350   19.1830 N.am  162  THR162     -0.1951
    132  CA        49.6430  -15.3140   19.3470 C.3   162  THR162      0.1897
    133  C         49.2180  -14.0740   18.5780 C.2   162  THR162      0.2313
    134  O         50.0250  -13.1710   18.3440 O.2   162  THR162     -0.2863
    135  CB        49.1460  -15.2260   20.8470 C.3   162  THR162      0.1794
    136  OG1       49.4110  -13.9310   21.3700 O.3   162  THR162     -0.2208
    137  CG2       49.8130  -16.2950   21.7310 C.3   162  THR162      0.0378
    138  N         46.2280  -17.2430   18.5800 N.3   164  GLN164     -0.1245
    139  CA        46.0950  -18.6480   18.2370 C.3   164  GLN164      0.1566
    140  C         44.5820  -18.7670   18.0470 C.2   164  GLN164      0.2260
    141  O         43.8130  -18.3980   18.9290 O.2   164  GLN164     -0.2867
    142  CB        46.6440  -19.5080   19.3770 C.3   164  GLN164      0.0367
    143  CG        48.1320  -19.1760   19.6010 C.3   164  GLN164      0.0905
    144  CD        48.9520  -20.3460   20.1750 C.2   164  GLN164      0.2608
    145  OE1       48.3980  -21.3770   20.5870 O.2   164  GLN164     -0.2717
    146  NE2       50.2850  -20.1810   20.2010 N.am  164  GLN164     -0.0878
    147  N         51.8930  -24.9230   27.2120 N.3   186  THR186     -0.1203
    148  CA        52.4010  -23.5550   27.1890 C.3   186  THR186      0.1994
    149  C         51.6910  -22.6320   26.2120 C.2   186  THR186      0.2617
    150  O         51.9500  -21.4240   26.1720 O.2   186  THR186     -0.2717
    151  CB        53.9110  -23.5280   26.9050 C.3   186  THR186      0.1784
    152  OG1       54.1680  -24.1490   25.6420 O.3   186  THR186     -0.2211
    153  CG2       54.6650  -24.2760   27.9980 C.3   186  THR186      0.0376
    154  N         50.8260  -23.2050   25.3880 N.am  187  ASP187     -0.1973
    155  CA        50.0150  -22.4010   24.4860 C.3   187  ASP187      0.1709
    156  C         48.7870  -23.2210   24.0990 C.2   187  ASP187      0.2293
    157  O         48.6230  -24.3440   24.5820 O.2   187  ASP187     -0.2864
    158  CB        50.8240  -21.8680   23.2840 C.3   187  ASP187      0.1436
    159  CG        51.1940  -22.9190   22.2750 C.2   187  ASP187      0.3671
    160  OD1       50.9870  -24.1310   22.5090 O.co2 187  ASP187     -0.2456
    161  OD2       51.7070  -22.5080   21.2000 O.co2 187  ASP187     -0.2456
    162  N         56.5800  -10.4270   22.9250 N.3   210  LYS210     -0.1245
    163  CA        55.9310  -10.5680   24.2220 C.3   210  LYS210      0.1561
    164  C         56.7370   -9.7800   25.2550 C.2   210  LYS210      0.2260
    165  O         57.9470   -9.9720   25.3800 O.2   210  LYS210     -0.2867
    166  CB        55.8790  -12.0450   24.6280 C.3   210  LYS210      0.0271
    167  CG        55.1500  -12.2980   25.9430 C.3   210  LYS210      0.0035
    168  CD        55.0580  -13.7890   26.2830 C.3   210  LYS210      0.0206
    169  CE        56.3810  -14.3300   26.8330 C.3   210  LYS210      0.1093
    170  NZ        57.0580  -15.2280   25.8580 N.3   210  LYS210     -0.1314
    171  N         57.8640   -9.3090   28.7580 N.3   212  THR212     -0.1218
    172  CA        57.9420  -10.0440   30.0160 C.3   212  THR212      0.1862
    173  C         59.0040   -9.4640   30.9370 C.2   212  THR212      0.2287
    174  O         58.8340   -9.4190   32.1580 O.2   212  THR212     -0.2866
    175  CB        58.2880  -11.5250   29.7800 C.3   212  THR212      0.1770
    176  OG1       57.5810  -12.0110   28.6310 O.3   212  THR212     -0.2211
    177  CG2       57.8880  -12.3490   30.9940 C.3   212  THR212      0.0375
@<TRIPOS>BOND
     1   129   128    1
     2   128   127    1
     3   128   130    1
     4   127   124    1
     5   140   139    1
     6   140   141    2
     7   139   138    1
     8   139   142    1
     9   123   124    1
    10   123   120   am
    11   118   119    1
    12   119   120    1
    13   119   122    1
    14   134   133    2
    15   133   132    1
    16   124   125    1
    17   120   121    2
    18   125   126    2
    19   125   131   am
    20   131   132    1
    21   132   135    1
    22   142   143    1
    23   143   144    1
    24   144   146   am
    25   144   145    2
    26   135   136    1
    27   135   137    1
    28   116   115    1
    29   161   159   ar
    30   110   109    2
    31   113   114    1
    32   113   112    1
    33   115   114    2
    34   115   117    1
    35   111   112    1
    36   111   108    1
    37   159   160   ar
    38   159   158    1
    39   109   108    1
    40   162   163    1
    41   108   107    1
    42   158   155    1
    43    89    90    1
    44   156   155    1
    45   156   157    2
    46   163   166    1
    47   163   164    1
    48   107   104   am
    49    92    91    2
    50   155   154    1
    51    96    94   ar
    52   166   167    1
    53    82    80    1
    54    94    93    1
    55    94    95   ar
    56    93    90    1
    57    90    91    1
    58   105   104    2
    59   164   165    2
    60   104   103    1
    61    91    97   am
    62   154   149   am
    63   152   151    1
    64   170   169    1
    65   167   168    1
    66    80    81    1
    67    80    79    2
    68   150   149    2
    69   149   148    1
    70   100    99    2
    71   168   169    1
    72    97    98    1
    73    99   102   am
    74    99    98    1
    75   103   102    1
    76   103   106    1
    77    98   101    1
    78   151   148    1
    79   151   153    1
    80    79    78    1
    81     7     6    1
    82     7     1    1
    83   148   147    1
    84     6     5    1
    85     1     2    1
    86    78    77    1
    87   176   175    1
    88   171   172    1
    89     5     2    1
    90     4     3    2
    91    77    76    1
    92     2     3    1
    93   175   172    1
    94   175   177    1
    95     3     8   am
    96   172   173    1
    97    45    44    2
    98    76    73    1
    99    75    74    2
   100   173   174    2
   101    43    46    1
   102    43    44    1
   103    43    42    1
   104    36    35    2
   105     8     9    1
   106    46    47    1
   107    12     9    1
   108    74    73    1
   109    86    85    2
   110    85    84    1
   111     9    10    1
   112    31    30    1
   113    73    72    1
   114    41    40    1
   115    35    42   am
   116    35    34    1
   117    39    40    1
   118    39    38    1
   119    37    38    1
   120    37    34    1
   121    32    30    1
   122    47    48    1
   123    30    29    2
   124    34    33    1
   125    87    84    1
   126    87    88    1
   127    84    83    1
   128    72    65   am
   129    10    13   am
   130    10    11    2
   131    48    49    2
   132    48    50   am
   133    29    28    1
   134    13    14    1
   135    28    27    1
   136    65    66    2
   137    65    64    1
   138    25    24    2
   139    26    27    1
   140    26    23    1
   141    18    19    1
   142    18    15   am
   143    67    64    1
   144    67    68    1
   145    14    17    1
   146    14    15    1
   147    70    69   ar
   148    64    63    1
   149    19    20    1
   150    24    23    1
   151    15    16    2
   152    23    22    1
   153    68    69    1
   154    21    20    2
   155    69    71   ar
   156    63    57   am
   157    51    52    1
   158    52    53    1
   159    54    53    2
   160    57    58    2
   161    57    56    1
   162    53    55   am
   163    55    56    1
   164    56    59    1
   165    59    60    1
   166    60    62   ar
   167    60    61   ar
