@<TRIPOS>MOLECULE
tmp/1invA01.pdb
 181 172 0 0 0
SMALL
GASTEIGER

@<TRIPOS>ATOM
      1  N         43.2850   -9.1030   65.4410 N.3    40  ARG40      -0.1231
      2  CA        42.3320  -10.2240   65.3790 C.3    40  ARG40       0.1694
      3  C         41.8490  -10.2240   63.9240 C.2    40  ARG40       0.2591
      4  O         42.0270   -9.2160   63.2020 O.2    40  ARG40      -0.2718
      5  CB        41.1420  -10.0350   66.3430 C.3    40  ARG40       0.0321
      6  CG        41.1530  -10.9450   67.5720 C.3    40  ARG40       0.0489
      7  CD        40.5700  -12.3200   67.2820 C.3    40  ARG40       0.2205
      8  NE        39.1430  -12.3470   67.5540 N.pl3  40  ARG40      -0.0865
      9  CZ        38.2400  -13.0980   66.9280 C.cat  40  ARG40       0.5346
     10  NH1       38.5590  -13.9230   65.9330 N.pl3  40  ARG40       0.1354
     11  NH2       36.9730  -12.9980   67.2960 N.pl3  40  ARG40       0.1354
     12  N         41.2830  -11.3450   63.4810 N.am   41  GLU41      -0.1979
     13  CA        40.7690  -11.4920   62.1170 C.3    41  GLU41       0.1602
     14  C         41.8160  -11.3020   61.0310 C.2    41  GLU41       0.2287
     15  O         41.6150  -10.5360   60.0870 O.2    41  GLU41      -0.2864
     16  CB        39.5840  -10.5470   61.8530 C.3    41  GLU41       0.0415
     17  CG        38.3350  -10.8870   62.6450 C.3    41  GLU41       0.1163
     18  CD        38.2140  -10.1090   63.9450 C.2    41  GLU41       0.3649
     19  OE1       38.7340   -8.9680   64.0270 O.co2  41  GLU41      -0.2457
     20  OE2       37.5700  -10.6480   64.8790 O.co2  41  GLU41      -0.2457
     21  N         34.5860   -5.8340   69.7120 N.3    73  ASP73      -0.1225
     22  CA        34.7130   -6.0410   68.2650 C.3    73  ASP73       0.1805
     23  C         34.7020   -4.8280   67.3850 C.2    73  ASP73       0.2597
     24  O         35.4740   -4.7390   66.4430 O.2    73  ASP73      -0.2718
     25  CB        33.6310   -6.9830   67.7380 C.3    73  ASP73       0.1424
     26  CG        33.6220   -8.3280   68.4370 C.2    73  ASP73       0.3668
     27  OD1       34.7130   -8.8640   68.7360 O.co2  73  ASP73      -0.2456
     28  OD2       32.5070   -8.8430   68.6900 O.co2  73  ASP73      -0.2456
     29  N         33.7680   -3.9320   67.6570 N.am   74  ARG74      -0.1979
     30  CA        33.6290   -2.7280   66.8740 C.3    74  ARG74       0.1597
     31  C         33.8000   -1.4990   67.7600 C.2    74  ARG74       0.2287
     32  O         33.3210   -1.4610   68.8850 O.2    74  ARG74      -0.2864
     33  CB        32.2580   -2.7170   66.2090 C.3    74  ARG74       0.0334
     34  CG        31.9830   -3.9550   65.4040 C.3    74  ARG74       0.0492
     35  CD        30.5880   -3.9470   64.7470 C.3    74  ARG74       0.2205
     36  NE        29.4910   -3.9290   65.7130 N.pl3  74  ARG74      -0.0865
     37  CZ        29.1820   -4.9130   66.5560 C.cat  74  ARG74       0.5346
     38  NH1       29.8850   -6.0390   66.5670 N.pl3  74  ARG74       0.1354
     39  NH2       28.1580   -4.7690   67.3960 N.pl3  74  ARG74       0.1354
     40  N         39.5270    0.8240   65.5810 N.3    78  ARG78      -0.1245
     41  CA        39.9690   -0.2550   64.7010 C.3    78  ARG78       0.1563
     42  C         40.3410    0.1720   63.3030 C.2    78  ARG78       0.2260
     43  O         39.7130    1.0140   62.7120 O.2    78  ARG78      -0.2867
     44  CB        38.9810   -1.4010   64.6590 C.3    78  ARG78       0.0307
     45  CG        38.7840   -2.0550   66.0020 C.3    78  ARG78       0.0489
     46  CD        38.2510   -3.4460   65.8350 C.3    78  ARG78       0.2205
     47  NE        39.3110   -4.4460   65.7150 N.pl3  78  ARG78      -0.0865
     48  CZ        39.0800   -5.7380   65.5390 C.cat  78  ARG78       0.5346
     49  NH1       37.8370   -6.1620   65.4140 N.pl3  78  ARG78       0.1354
     50  NH2       40.0820   -6.5950   65.4460 N.pl3  78  ARG78       0.1354
     51  N         36.2110   -1.9270   61.1560 N.3   101  TRP101     -0.1227
     52  CA        36.0910   -2.9640   62.1410 C.3   101  TRP101      0.1737
     53  C         35.6950   -4.2970   61.4860 C.2   101  TRP101      0.2596
     54  O         35.3920   -5.2610   62.1570 O.2   101  TRP101     -0.2718
     55  CB        35.1920   -2.5590   63.3070 C.3   101  TRP101      0.0564
     56  CG        33.9680   -1.7680   62.9720 C.ar  101  TRP101      0.0003
     57  CD1       33.7060   -0.4970   63.3490 C.ar  101  TRP101      0.0946
     58  CD2       32.7830   -2.2500   62.3100 C.ar  101  TRP101      0.0152
     59  NE1       32.4320   -0.1590   62.9950 N.ar  101  TRP101     -0.2442
     60  CE2       31.8400   -1.2150   62.3510 C.ar  101  TRP101      0.0810
     61  CE3       32.4310   -3.4620   61.6970 C.ar  101  TRP101      0.0012
     62  CZ2       30.5560   -1.3440   61.8030 C.ar  101  TRP101      0.0191
     63  CZ3       31.1660   -3.5930   61.1530 C.ar  101  TRP101      0.0001
     64  CH2       30.2360   -2.5340   61.2130 C.ar  101  TRP101      0.0015
     65  N         35.7760   -4.3290   60.1570 N.am  102  SER102     -0.1952
     66  CA        35.5130   -5.5170   59.3520 C.3   102  SER102      0.1924
     67  C         36.2190   -5.2460   58.0080 C.2   102  SER102      0.2314
     68  O         36.1210   -4.1590   57.4790 O.2   102  SER102     -0.2863
     69  CB        34.0080   -5.7350   59.1900 C.3   102  SER102      0.2116
     70  OG        33.7220   -6.9950   58.5910 O.3   102  SER102     -0.2180
     71  N         24.3440   -3.9990   61.6910 N.3   145  ILE145     -0.1245
     72  CA        25.7500   -4.3260   61.5340 C.3   145  ILE145      0.1561
     73  C         26.1860   -4.8600   60.1620 C.2   145  ILE145      0.2260
     74  O         26.4840   -6.0210   60.0070 O.2   145  ILE145     -0.2867
     75  CB        26.1970   -5.2990   62.6620 C.3   145  ILE145      0.0252
     76  CG1       25.8540   -4.6920   64.0060 C.3   145  ILE145      0.0019
     77  CG2       27.6910   -5.5380   62.6470 C.3   145  ILE145      0.0019
     78  CD1       26.1150   -5.6250   65.1210 C.3   145  ILE145      0.0001
     79  N         28.5690   -5.8860   57.3840 N.3   147  ARG147     -0.1245
     80  CA        29.9170   -6.4050   57.5570 C.3   147  ARG147      0.1563
     81  C         30.3670   -7.2440   56.3460 C.2   147  ARG147      0.2260
     82  O         29.5710   -7.5640   55.4600 O.2   147  ARG147     -0.2867
     83  CB        29.9680   -7.2410   58.8490 C.3   147  ARG147      0.0307
     84  CG        28.9590   -8.4000   58.8730 C.3   147  ARG147      0.0489
     85  CD        28.4920   -8.7380   60.2930 C.3   147  ARG147      0.2205
     86  NE        27.5700   -9.8890   60.3330 N.pl3 147  ARG147     -0.0865
     87  CZ        26.2350   -9.8220   60.3160 C.cat 147  ARG147      0.5346
     88  NH1       25.6230   -8.6510   60.2950 N.pl3 147  ARG147      0.1354
     89  NH2       25.5060  -10.9340   60.3560 N.pl3 147  ARG147      0.1354
     90  N         36.4350  -10.9140   55.9970 N.3   150  GLU150     -0.1245
     91  CA        37.5460  -11.1980   56.9090 C.3   150  GLU150      0.1567
     92  C         38.5190  -12.1800   56.2080 C.2   150  GLU150      0.2260
     93  O         39.1520  -13.0070   56.8340 O.2   150  GLU150     -0.2867
     94  CB        37.0470  -11.7480   58.2570 C.3   150  GLU150      0.0388
     95  CG        35.7710  -11.0870   58.8120 C.3   150  GLU150      0.1160
     96  CD        35.9250   -9.6110   59.1600 C.2   150  GLU150      0.3649
     97  OE1       36.8740   -8.9420   58.6910 O.co2 150  GLU150     -0.2457
     98  OE2       35.0700   -9.1050   59.9140 O.co2 150  GLU150     -0.2457
     99  N         22.7570  -11.2350   64.1180 N.3   169  ALA169     -0.1245
    100  CA        23.6550  -12.3410   64.3830 C.3   169  ALA169      0.1562
    101  C         22.8460  -13.5660   64.7860 C.2   169  ALA169      0.2260
    102  O         23.2520  -14.6960   64.5500 O.2   169  ALA169     -0.2867
    103  CB        24.5720  -11.9510   65.5100 C.3   169  ALA169      0.0290
    104  N         27.2160  -15.4480   56.3900 N.3   199  GLU199     -0.1231
    105  CA        28.1860  -14.4270   56.7870 C.3   199  GLU199      0.1699
    106  C         29.5800  -15.0100   56.7820 C.2   199  GLU199      0.2592
    107  O         29.7470  -16.2110   56.6690 O.2   199  GLU199     -0.2718
    108  CB        27.8750  -13.8570   58.1730 C.3   199  GLU199      0.0402
    109  CG        28.0390  -14.8380   59.3160 C.3   199  GLU199      0.1161
    110  CD        27.8440  -14.2020   60.6920 C.2   199  GLU199      0.3649
    111  OE1       27.3430  -13.0580   60.7670 O.co2 199  GLU199     -0.2457
    112  OE2       28.1850  -14.8520   61.7000 O.co2 199  GLU199     -0.2457
    113  N         30.5670  -14.1220   56.8120 N.am  200  GLU200     -0.1979
    114  CA        31.9810  -14.4760   56.8430 C.3   200  GLU200      0.1602
    115  C         32.4030  -15.5310   55.8150 C.2   200  GLU200      0.2287
    116  O         33.0980  -16.4810   56.1340 O.2   200  GLU200     -0.2864
    117  CB        32.3660  -14.9020   58.2680 C.3   200  GLU200      0.0415
    118  CG        32.5620  -13.7190   59.2230 C.3   200  GLU200      0.1163
    119  CD        32.9790  -14.1200   60.6310 C.2   200  GLU200      0.3649
    120  OE1       32.8530  -15.3030   60.9820 O.co2 200  GLU200     -0.2457
    121  OE2       33.4150  -13.2300   61.3890 O.co2 200  GLU200     -0.2457
    122  N         29.4900  -18.9310   57.0980 N.3   216  ARG216     -0.1245
    123  CA        29.0760  -19.1660   58.4510 C.3   216  ARG216      0.1563
    124  C         27.6180  -18.7690   58.5700 C.2   216  ARG216      0.2260
    125  O         27.1600  -17.7950   57.9580 O.2   216  ARG216     -0.2867
    126  CB        29.9380  -18.3280   59.4230 C.3   216  ARG216      0.0307
    127  CG        29.7670  -18.7220   60.8730 C.3   216  ARG216      0.0489
    128  CD        29.5260  -17.5450   61.8080 C.3   216  ARG216      0.2205
    129  NE        30.7440  -16.8290   62.1440 N.pl3 216  ARG216     -0.0865
    130  CZ        31.0010  -16.2790   63.3320 C.cat 216  ARG216      0.5346
    131  NH1       30.1590  -16.3940   64.3480 N.pl3 216  ARG216      0.1354
    132  NH2       32.1510  -15.6520   63.5240 N.pl3 216  ARG216      0.1354
    133  N         25.3810  -18.1050   61.6350 N.3   218  ASN218     -0.1240
    134  CA        25.4670  -17.9360   63.0610 C.3   218  ASN218      0.1653
    135  C         24.2640  -18.3180   63.9010 C.2   218  ASN218      0.2266
    136  O         24.3750  -18.3820   65.0870 O.2   218  ASN218     -0.2867
    137  CB        25.8160  -16.5000   63.3710 C.3   218  ASN218      0.1155
    138  CG        26.4220  -16.3490   64.7430 C.2   218  ASN218      0.2627
    139  OD1       27.4210  -17.0100   65.0730 O.2   218  ASN218     -0.2716
    140  ND2       25.8180  -15.5080   65.5680 N.am  218  ASN218     -0.0877
    141  N         29.0360  -19.5830   65.6340 N.3   271  GLY271     -0.1225
    142  CA        29.7680  -20.1110   64.5070 C.3   271  GLY271      0.1811
    143  C         31.2200  -19.6920   64.5370 C.2   271  GLY271      0.2280
    144  O         31.7390  -19.1890   65.5520 O.2   271  GLY271     -0.2866
    145  N         36.9930  -23.3370   70.5730 N.3   298  ARG298     -0.1245
    146  CA        37.9250  -22.8640   69.5370 C.3   298  ARG298      0.1563
    147  C         39.3580  -23.3250   69.8230 C.2   298  ARG298      0.2260
    148  O         40.2790  -22.5010   70.0200 O.2   298  ARG298     -0.2867
    149  CB        37.8740  -21.3220   69.4020 C.3   298  ARG298      0.0307
    150  CG        36.5370  -20.6840   69.6770 C.3   298  ARG298      0.0489
    151  CD        35.8500  -20.1710   68.4370 C.3   298  ARG298      0.2205
    152  NE        36.0620  -18.7400   68.2370 N.pl3 298  ARG298     -0.0865
    153  CZ        35.1700  -17.9030   67.7080 C.cat 298  ARG298      0.5346
    154  NH1       33.9600  -18.3050   67.3610 N.pl3 298  ARG298      0.1354
    155  NH2       35.4860  -16.6360   67.5550 N.pl3 298  ARG298      0.1354
    156  N         41.1210  -20.6400   66.1090 N.3   332  TRP332     -0.1227
    157  CA        40.0270  -19.6960   65.8820 C.3   332  TRP332      0.1737
    158  C         39.6580  -19.5990   64.3930 C.2   332  TRP332      0.2595
    159  O         39.3530  -20.5820   63.7880 O.2   332  TRP332     -0.2718
    160  CB        40.3760  -18.3350   66.5050 C.3   332  TRP332      0.0564
    161  CG        40.2900  -18.3540   67.9970 C.ar  332  TRP332      0.0003
    162  CD1       40.8590  -19.2680   68.8460 C.ar  332  TRP332      0.0946
    163  CD2       39.5410  -17.4530   68.8230 C.ar  332  TRP332      0.0152
    164  NE1       40.5020  -19.0010   70.1480 N.ar  332  TRP332     -0.2442
    165  CE2       39.6990  -17.8880   70.1690 C.ar  332  TRP332      0.0810
    166  CE3       38.7510  -16.3210   68.5690 C.ar  332  TRP332      0.0012
    167  CZ2       39.0970  -17.2220   71.2520 C.ar  332  TRP332      0.0191
    168  CZ3       38.1480  -15.6580   69.6580 C.ar  332  TRP332      0.0001
    169  CH2       38.3310  -16.1160   70.9770 C.ar  332  TRP332      0.0015
    170  N         39.6630  -18.4090   63.8170 N.am  333  TYR333     -0.1976
    171  CA        39.3390  -18.2940   62.4080 C.3   333  TYR333      0.1639
    172  C         40.3880  -18.9450   61.5140 C.2   333  TYR333      0.2290
    173  O         41.5290  -19.0740   61.8850 O.2   333  TYR333     -0.2864
    174  CB        39.2170  -16.8390   61.9960 C.3   333  TYR333      0.0560
    175  CG        37.9360  -16.1740   62.3890 C.ar  333  TYR333     -0.0198
    176  CD1       37.1730  -16.6420   63.4630 C.ar  333  TYR333     -0.0009
    177  CD2       37.5080  -15.0370   61.7160 C.ar  333  TYR333     -0.0009
    178  CE1       36.0190  -15.9830   63.8610 C.ar  333  TYR333      0.0417
    179  CE2       36.3600  -14.3680   62.1030 C.ar  333  TYR333      0.0417
    180  CZ        35.6240  -14.8420   63.1690 C.ar  333  TYR333      0.1957
    181  OH        34.4970  -14.1700   63.5380 O.3   333  TYR333     -0.2866
@<TRIPOS>BOND
     1    82    81    2
     2   115   116    2
     3   115   114    1
     4    90    91    1
     5    92    93    2
     6    92    91    1
     7    81    80    1
     8   104   105    1
     9   107   106    2
    10   106   105    1
    11   106   113   am
    12   105   108    1
    13   113   114    1
    14   114   117    1
    15    91    94    1
    16   122   123    1
    17    79    80    1
    18    68    67    2
    19    80    83    1
    20   125   124    2
    21    67    66    1
    22   108   109    1
    23    94    95    1
    24   117   118    1
    25   123   124    1
    26   123   126    1
    27    70    69    1
    28    97    96   ar
    29    95    96    1
    30    83    84    1
    31    84    85    1
    32    96    98   ar
    33    69    66    1
    34   118   119    1
    35   109   110    1
    36    66    65    1
    37   126   127    1
    38    74    73    2
    39    15    14    2
    40    65    53   am
    41    73    72    1
    42    85    86    1
    43    88    87    1
    44    87    86    2
    45    87    89    1
    46   119   120   ar
    47   119   121   ar
    48   110   111   ar
    49   110   112   ar
    50   127   128    1
    51    14    13    1
    52    63    64   ar
    53    63    61   ar
    54    51    52    1
    55    64    62   ar
    56    53    52    1
    57    53    54    2
    58   172   173    2
    59   172   171    1
    60    72    71    1
    61    72    75    1
    62   133   134    1
    63    61    58   ar
    64   177   179   ar
    65   177   175   ar
    66    62    60   ar
    67   128   129    1
    68    16    13    1
    69    16    17    1
    70   174   175    1
    71   174   171    1
    72   179   180   ar
    73    13    12    1
    74    52    55    1
    75   129   130    2
    76    58    60   ar
    77    58    56   ar
    78    60    59   ar
    79   175   176   ar
    80   171   170    1
    81    17    18    1
    82    77    75    1
    83    75    76    1
    84    43    42    2
    85    56    55    1
    86    56    57   ar
    87    59    57   ar
    88   134   137    1
    89   134   135    1
    90   180   181    1
    91   180   178   ar
    92     4     3    2
    93    42    41    1
    94   130   132    1
    95   130   131    1
    96   137   138    1
    97   176   178   ar
    98    12     3   am
    99   159   158    2
   100   170   158   am
   101   135   136    2
   102     3     2    1
   103    18    19   ar
   104    18    20   ar
   105    76    78    1
   106    99   100    1
   107   100   101    1
   108   100   103    1
   109   158   157    1
   110   142   143    1
   111   142   141    1
   112   143   144    2
   113   102   101    2
   114    44    41    1
   115    44    45    1
   116    41    40    1
   117   138   139    2
   118   138   140   am
   119    35    34    1
   120    35    36    1
   121     2     1    1
   122     2     5    1
   123    34    33    1
   124    49    48    1
   125    50    48    1
   126    48    47    2
   127    36    37    2
   128    47    46    1
   129    46    45    1
   130   157   156    1
   131   157   160    1
   132    10     9    1
   133    33    30    1
   134     5     6    1
   135    24    23    2
   136   160   161    1
   137    37    38    1
   138    37    39    1
   139    30    29    1
   140    30    31    1
   141     9    11    1
   142     9     8    2
   143     7     8    1
   144     7     6    1
   145   154   153    1
   146    23    29   am
   147    23    22    1
   148   155   153    1
   149   153   152    2
   150    25    22    1
   151    25    26    1
   152    31    32    2
   153   161   163   ar
   154   161   162   ar
   155   152   151    1
   156    22    21    1
   157    26    28   ar
   158    26    27   ar
   159   151   150    1
   160   166   163   ar
   161   166   168   ar
   162   163   165   ar
   163   162   164   ar
   164   149   146    1
   165   149   150    1
   166   146   147    1
   167   146   145    1
   168   168   169   ar
   169   147   148    2
   170   164   165   ar
   171   165   167   ar
   172   169   167   ar
