@<TRIPOS>MOLECULE
tmp/1inxA03.pdb
 167 156 0 0 0
SMALL
GASTEIGER

@<TRIPOS>ATOM
      1  N        108.0740   15.4500  -13.3280 N.3    37  ARG37      -0.1231
      2  CA       108.0010   16.8440  -13.7900 C.3    37  ARG37       0.1694
      3  C        106.5640   17.0120  -14.2800 C.2    37  ARG37       0.2591
      4  O        105.8420   16.0240  -14.4070 O.2    37  ARG37      -0.2718
      5  CB       109.0170   17.1660  -14.8990 C.3    37  ARG37       0.0321
      6  CG       110.2810   17.9810  -14.4590 C.3    37  ARG37       0.0489
      7  CD       110.0780   19.5050  -14.4720 C.3    37  ARG37       0.2205
      8  NE       110.3820   20.1010  -15.7700 N.pl3  37  ARG37      -0.0865
      9  CZ       109.7640   21.1550  -16.3170 C.cat  37  ARG37       0.5346
     10  NH1      108.7320   21.7620  -15.7530 N.pl3  37  ARG37       0.1354
     11  NH2      110.1560   21.5720  -17.4950 N.pl3  37  ARG37       0.1354
     12  N        106.1400   18.2610  -14.4860 N.am   38  GLU38      -0.1979
     13  CA       104.7900   18.5980  -14.9360 C.3    38  GLU38       0.1602
     14  C        103.6910   17.9940  -14.0750 C.2    38  GLU38       0.2287
     15  O        102.7930   17.3250  -14.5880 O.2    38  GLU38      -0.2864
     16  CB       104.5600   18.1970  -16.3980 C.3    38  GLU38       0.0415
     17  CG       105.4320   18.9260  -17.4290 C.3    38  GLU38       0.1163
     18  CD       106.8090   18.3170  -17.5470 C.2    38  GLU38       0.3649
     19  OE1      106.9020   17.0810  -17.4130 O.co2  38  GLU38      -0.2457
     20  OE2      107.7930   19.0550  -17.7670 O.co2  38  GLU38      -0.2457
     21  N        112.2660   15.9590  -22.1730 N.3    70  ASP70      -0.1225
     22  CA       110.8340   15.9610  -21.9610 C.3    70  ASP70       0.1805
     23  C        110.0120   14.8450  -22.5360 C.2    70  ASP70       0.2597
     24  O        108.9320   14.5320  -22.0110 O.2    70  ASP70      -0.2718
     25  CB       110.2400   17.2610  -22.4900 C.3    70  ASP70       0.1424
     26  CG       111.0150   18.4800  -22.0500 C.2    70  ASP70       0.3668
     27  OD1      111.3680   18.5900  -20.8530 O.co2  70  ASP70      -0.2456
     28  OD2      111.2670   19.3370  -22.9230 O.co2  70  ASP70      -0.2456
     29  N        110.4550   14.2810  -23.6450 N.am   71  ARG71      -0.1979
     30  CA       109.6550   13.2520  -24.2740 C.3    71  ARG71       0.1597
     31  C        110.3900   11.9750  -24.6060 C.2    71  ARG71       0.2287
     32  O        111.1520   11.9430  -25.5560 O.2    71  ARG71      -0.2864
     33  CB       109.0040   13.8210  -25.5390 C.3    71  ARG71       0.0334
     34  CG       108.1090   15.0120  -25.2960 C.3    71  ARG71       0.0492
     35  CD       107.7100   15.6730  -26.5990 C.3    71  ARG71       0.2205
     36  NE       108.8790   15.8840  -27.4510 N.pl3  71  ARG71      -0.0865
     37  CZ       109.7020   16.9320  -27.4010 C.cat  71  ARG71       0.5346
     38  NH1      109.5190   17.9230  -26.5390 N.pl3  71  ARG71       0.1354
     39  NH2      110.7250   16.9700  -28.2320 N.pl3  71  ARG71       0.1354
     40  N        107.8280    7.7060  -20.2540 N.3    75  ARG75      -0.1245
     41  CA       107.0970    8.6380  -19.4040 C.3    75  ARG75       0.1563
     42  C        105.6890    8.0640  -19.2620 C.2    75  ARG75       0.2260
     43  O        105.0960    7.6160  -20.2670 O.2    75  ARG75      -0.2867
     44  CB       107.0020   10.0040  -20.0980 C.3    75  ARG75       0.0307
     45  CG       108.3380   10.6840  -20.3840 C.3    75  ARG75       0.0489
     46  CD       108.6920   11.5920  -19.2420 C.3    75  ARG75       0.2205
     47  NE       108.3910   12.9710  -19.5600 N.pl3  75  ARG75      -0.0865
     48  CZ       108.2300   13.9460  -18.6690 C.cat  75  ARG75       0.5346
     49  NH1      108.2000   13.7000  -17.3670 N.pl3  75  ARG75       0.1354
     50  NH2      108.0010   15.1710  -19.1040 N.pl3  75  ARG75       0.1354
     51  N        103.6280   11.7080  -22.2910 N.3    97  TRP97      -0.1227
     52  CA       104.6930   12.6900  -22.0850 C.3    97  TRP97       0.1737
     53  C        104.0740   14.0730  -21.9950 C.2    97  TRP97       0.2596
     54  O        104.7730   15.0640  -21.8470 O.2    97  TRP97      -0.2718
     55  CB       105.8740   12.6210  -23.0700 C.3    97  TRP97       0.0564
     56  CG       105.6350   12.3670  -24.5440 C.ar   97  TRP97       0.0003
     57  CD1      106.1620   11.3350  -25.2710 C.ar   97  TRP97       0.0946
     58  CD2      104.9760   13.2310  -25.4970 C.ar   97  TRP97       0.0152
     59  NE1      105.8900   11.5060  -26.6030 N.ar   97  TRP97      -0.2442
     60  CE2      105.1670   12.6560  -26.7800 C.ar   97  TRP97       0.0810
     61  CE3      104.2570   14.4270  -25.3960 C.ar   97  TRP97       0.0012
     62  CZ2      104.6710   13.2410  -27.9530 C.ar   97  TRP97       0.0191
     63  CZ3      103.7580   15.0100  -26.5660 C.ar   97  TRP97       0.0001
     64  CH2      103.9710   14.4100  -27.8280 C.ar   97  TRP97       0.0015
     65  N        102.7400   14.1010  -22.0530 N.am   98  SER98      -0.1952
     66  CA       101.9290   15.3090  -21.9210 C.3    98  SER98       0.1924
     67  C        100.5410   14.7920  -21.5010 C.2    98  SER98       0.2314
     68  O        100.1070   13.8220  -22.0340 O.2    98  SER98      -0.2863
     69  CB       101.8800   16.0710  -23.2490 C.3    98  SER98       0.2116
     70  OG       100.9790   17.1610  -23.1910 O.3    98  SER98      -0.2180
     71  N        104.5670   17.8190  -32.4730 N.3   141  ILE141     -0.1245
     72  CA       104.3800   17.6670  -31.0350 C.3   141  ILE141      0.1561
     73  C        103.0060   18.0100  -30.4500 C.2   141  ILE141      0.2260
     74  O        102.8390   19.0570  -29.8300 O.2   141  ILE141     -0.2867
     75  CB       105.4830   18.4020  -30.2600 C.3   141  ILE141      0.0252
     76  CG1      106.8470   17.9810  -30.7890 C.3   141  ILE141      0.0019
     77  CG2      105.4210   18.0400  -28.8050 C.3   141  ILE141      0.0019
     78  CD1      108.0040   18.7220  -30.1600 C.3   141  ILE141      0.0001
     79  N        100.3030   18.3900  -27.9750 N.3   143  ARG143     -0.1245
     80  CA       100.4890   18.5730  -26.5480 C.3   143  ARG143      0.1563
     81  C         99.2230   19.1320  -25.8930 C.2   143  ARG143      0.2260
     82  O         98.3480   19.6250  -26.5830 O.2   143  ARG143     -0.2867
     83  CB       101.7160   19.4770  -26.3300 C.3   143  ARG143      0.0307
     84  CG       101.7340   20.7860  -27.1480 C.3   143  ARG143      0.0489
     85  CD       103.1590   21.3700  -27.2650 C.3   143  ARG143      0.2205
     86  NE       103.2280   22.6920  -27.9180 N.pl3 143  ARG143     -0.0865
     87  CZ       103.2990   22.9120  -29.2370 C.cat 143  ARG143      0.5346
     88  NH1      103.3320   21.9060  -30.0890 N.pl3 143  ARG143      0.1354
     89  NH2      103.3560   24.1480  -29.7130 N.pl3 143  ARG143      0.1354
     90  N         98.6630   19.8520  -19.0430 N.3   146  GLU146     -0.1245
     91  CA        99.5670   19.5890  -17.9280 C.3   146  GLU146      0.1567
     92  C         98.9270   20.0220  -16.6080 C.2   146  GLU146      0.2260
     93  O         99.6430   20.3920  -15.6690 O.2   146  GLU146     -0.2867
     94  CB       100.9280   20.2760  -18.0970 C.3   146  GLU146      0.0388
     95  CG       101.5370   20.2240  -19.5020 C.3   146  GLU146      0.1160
     96  CD       101.7310   18.8240  -20.0770 C.2   146  GLU146      0.3649
     97  OE1      101.2510   17.8330  -19.4850 O.co2 146  GLU146     -0.2457
     98  OE2      102.3630   18.7140  -21.1510 O.co2 146  GLU146     -0.2457
     99  N        106.3790   25.8650  -31.6050 N.3   165  ALA165     -0.1245
    100  CA       106.5660   26.2830  -30.2160 C.3   165  ALA165      0.1562
    101  C        106.8160   27.7780  -30.1450 C.2   165  ALA165      0.2260
    102  O        106.6220   28.3960  -29.1160 O.2   165  ALA165     -0.2867
    103  CB       107.7410   25.5520  -29.6020 C.3   165  ALA165      0.0290
    104  N         99.2670   27.5300  -25.1800 N.3   195  GLU195     -0.1231
    105  CA        99.8510   26.3090  -24.6730 C.3   195  GLU195      0.1699
    106  C         99.5650   26.2040  -23.1990 C.2   195  GLU195      0.2592
    107  O         99.2780   27.2050  -22.5440 O.2   195  GLU195     -0.2718
    108  CB       101.3690   26.3320  -24.8300 C.3   195  GLU195      0.0402
    109  CG       101.8480   25.9670  -26.2010 C.3   195  GLU195      0.1161
    110  CD       103.3520   25.8900  -26.2800 C.2   195  GLU195      0.3649
    111  OE1      104.0210   26.3170  -25.3070 O.co2 195  GLU195     -0.2457
    112  OE2      103.8680   25.3980  -27.3050 O.co2 195  GLU195     -0.2457
    113  N         99.6250   24.9810  -22.6920 N.am  196  GLU196     -0.1979
    114  CA        99.4900   24.7030  -21.2650 C.3   196  GLU196      0.1602
    115  C         98.4210   25.4810  -20.5130 C.2   196  GLU196      0.2287
    116  O         98.7070   26.1730  -19.5720 O.2   196  GLU196     -0.2864
    117  CB       100.8780   24.8900  -20.6170 C.3   196  GLU196      0.0415
    118  CG       101.9120   23.9970  -21.2970 C.3   196  GLU196      0.1163
    119  CD       103.3090   24.0520  -20.7150 C.2   196  GLU196      0.3649
    120  OE1      103.7510   25.1130  -20.2360 O.co2 196  GLU196     -0.2457
    121  OE2      103.9920   23.0100  -20.7550 O.co2 196  GLU196     -0.2457
    122  N         99.6930   29.7730  -21.7820 N.3   211  ARG211     -0.1245
    123  CA       101.0800   30.1830  -21.9990 C.3   211  ARG211      0.1563
    124  C        101.2920   30.6090  -23.4490 C.2   211  ARG211      0.2260
    125  O        100.9430   29.8770  -24.3400 O.2   211  ARG211     -0.2867
    126  CB       102.0330   28.9870  -21.7440 C.3   211  ARG211      0.0307
    127  CG       103.5050   29.3530  -21.8080 C.3   211  ARG211      0.0489
    128  CD       104.4370   28.3320  -22.4600 C.3   211  ARG211      0.2205
    129  NE       104.9810   27.3790  -21.5110 N.pl3 211  ARG211     -0.0865
    130  CZ       106.2080   26.8500  -21.5430 C.cat 211  ARG211      0.5346
    131  NH1      107.0850   27.1500  -22.4830 N.pl3 211  ARG211      0.1354
    132  NH2      106.5530   25.9850  -20.6130 N.pl3 211  ARG211      0.1354
    133  N        104.1090   31.1420  -25.8180 N.3   213  ASN213     -0.1240
    134  CA       105.5220   30.8320  -25.9880 C.3   213  ASN213      0.1653
    135  C        106.1580   31.5520  -27.1930 C.2   213  ASN213      0.2266
    136  O        107.3630   31.4050  -27.4780 O.2   213  ASN213     -0.2867
    137  CB       105.6440   29.3230  -26.1930 C.3   213  ASN213      0.1155
    138  CG       106.9520   28.7810  -25.7140 C.2   213  ASN213      0.2627
    139  OD1      107.2300   28.7790  -24.5380 O.2   213  ASN213     -0.2716
    140  ND2      107.7790   28.3420  -26.6340 N.am  213  ASN213     -0.0877
    141  N        108.2600   30.7760  -21.9220 N.3   267  GLY267     -0.1225
    142  CA       107.3010   31.0730  -20.8940 C.3   267  GLY267      0.1811
    143  C        107.2480   29.9370  -19.9190 C.2   267  GLY267      0.2280
    144  O        108.1700   29.1230  -19.8410 O.2   267  GLY267     -0.2866
    145  N        112.9190   30.7490  -13.3800 N.3   290  ARG290     -0.1245
    146  CA       111.8150   30.1220  -12.6570 C.3   290  ARG290      0.1563
    147  C        112.2380   30.0590  -11.1780 C.2   290  ARG290      0.2260
    148  O        112.5910   29.0050  -10.6860 O.2   290  ARG290     -0.2867
    149  CB       111.5560   28.7060  -13.2320 C.3   290  ARG290      0.0307
    150  CG       110.4100   28.6010  -14.2620 C.3   290  ARG290      0.0489
    151  CD       110.8280   28.3180  -15.7120 C.3   290  ARG290      0.2205
    152  NE       110.5880   26.9370  -16.1510 N.pl3 290  ARG290     -0.0865
    153  CZ       109.9870   26.5650  -17.2920 C.cat 290  ARG290      0.5346
    154  NH1      109.4210   27.4360  -18.1090 N.pl3 290  ARG290      0.1354
    155  NH2      109.8620   25.2830  -17.5770 N.pl3 290  ARG290      0.1354
    156  N        106.5520   25.2610  -12.9200 N.3   325  TYR325     -0.1241
    157  CA       105.1550   25.3310  -13.3490 C.3   325  TYR325      0.1605
    158  C        104.2100   25.5610  -12.1780 C.2   325  TYR325      0.2264
    159  O        104.5530   25.3120  -11.0350 O.2   325  TYR325     -0.2867
    160  CB       104.7260   23.9970  -13.9610 C.3   325  TYR325      0.0534
    161  CG       105.1030   23.8070  -15.3970 C.ar  325  TYR325     -0.0201
    162  CD1      106.1500   24.5290  -15.9700 C.ar  325  TYR325     -0.0009
    163  CD2      104.3700   22.9390  -16.2050 C.ar  325  TYR325     -0.0009
    164  CE1      106.4520   24.3980  -17.3070 C.ar  325  TYR325      0.0417
    165  CE2      104.6650   22.8010  -17.5550 C.ar  325  TYR325      0.0417
    166  CZ       105.6980   23.5360  -18.0860 C.ar  325  TYR325      0.1957
    167  OH       105.9280   23.4260  -19.4070 O.3   325  TYR325     -0.2866
@<TRIPOS>BOND
     1    71    72    1
     2    99   100    1
     3    72    73    1
     4    72    75    1
     5    76    75    1
     6    76    78    1
     7    73    74    2
     8    75    77    1
     9   100   101    1
    10   100   103    1
    11   101   102    2
    12    88    87    1
    13    89    87    1
    14    87    86    2
    15    39    37    1
    16    79    80    1
    17    62    64   ar
    18    62    60   ar
    19    86    85    1
    20    64    63   ar
    21   136   135    2
    22    36    37    2
    23    36    35    1
    24    37    38    1
    25   112   110   ar
    26    85    84    1
    27   135   134    1
    28    84    83    1
    29    60    59   ar
    30    60    58   ar
    31   140   138   am
    32    59    57   ar
    33    35    34    1
    34    82    81    2
    35    63    61   ar
    36    80    83    1
    37    80    81    1
    38   110   109    1
    39   110   111   ar
    40   109   108    1
    41   137   134    1
    42   137   138    1
    43   134   133    1
    44   138   139    2
    45    32    31    2
    46    33    34    1
    47    33    30    1
    48    58    61   ar
    49    58    56   ar
    50    57    56   ar
    51   104   105    1
    52   108   105    1
    53   105   106    1
    54    31    30    1
    55    56    55    1
    56   125   124    2
    57    30    29    1
    58    29    23   am
    59   124   123    1
    60    69    70    1
    61    69    66    1
    62   106   113   am
    63   106   107    2
    64    55    52    1
    65    28    26   ar
    66   113   114    1
    67    23    24    2
    68    23    22    1
    69    25    26    1
    70    25    22    1
    71   131   130    1
    72   128   127    1
    73   128   129    1
    74    51    52    1
    75    21    22    1
    76    52    53    1
    77    65    53   am
    78    65    66    1
    79    26    27   ar
    80    68    67    2
    81   123   122    1
    82   123   126    1
    83    53    54    2
    84   141   142    1
    85    66    67    1
    86   127   126    1
    87   130   129    2
    88   130   132    1
    89   118   119    1
    90   118   117    1
    91   114   117    1
    92   114   115    1
    93    98    96   ar
    94   142   143    1
    95   121   119   ar
    96   119   120   ar
    97   115   116    2
    98    45    44    1
    99    45    46    1
   100    43    42    2
   101    40    41    1
   102    44    41    1
   103    96    95    1
   104    96    97   ar
   105   143   144    2
   106    47    46    1
   107    47    48    2
   108    95    94    1
   109   167   166    1
   110    41    42    1
   111    50    48    1
   112    90    91    1
   113    48    49    1
   114   154   153    1
   115    94    91    1
   116   166   165   ar
   117   166   164   ar
   118    91    92    1
   119    20    18   ar
   120   155   153    1
   121   165   163   ar
   122    18    17    1
   123    18    19   ar
   124    11     9    1
   125    17    16    1
   126   164   162   ar
   127   153   152    2
   128    92    93    2
   129    16    13    1
   130     9     8    2
   131     9    10    1
   132   163   161   ar
   133   152   151    1
   134   162   161   ar
   135     8     7    1
   136   151   150    1
   137   161   160    1
   138    13    12    1
   139    13    14    1
   140     5     6    1
   141     5     2    1
   142    15    14    2
   143    12     3   am
   144     7     6    1
   145     4     3    2
   146     3     2    1
   147   150   149    1
   148   160   157    1
   149     2     1    1
   150   145   146    1
   151   157   156    1
   152   157   158    1
   153   149   146    1
   154   146   147    1
   155   158   159    2
   156   147   148    2
