@<TRIPOS>MOLECULE
tmp/1inyA01.pdb
 171 160 0 0 0
SMALL
GASTEIGER

@<TRIPOS>ATOM
      1  N         15.9320   13.5100   64.9340 N.3    37  ARG37      -0.1231
      2  CA        16.5600   14.8370   64.9270 C.3    37  ARG37       0.1694
      3  C         17.1010   15.0800   63.5150 C.2    37  ARG37       0.2591
      4  O         16.9270   14.2190   62.6200 O.2    37  ARG37      -0.2718
      5  CB        17.6370   15.0440   66.0030 C.3    37  ARG37       0.0321
      6  CG        17.2570   16.1760   66.9980 C.3    37  ARG37       0.0489
      7  CD        18.4320   17.0370   67.4880 C.3    37  ARG37       0.2205
      8  NE        18.7900   18.1640   66.6060 N.pl3  37  ARG37      -0.0865
      9  CZ        19.8830   18.9240   66.7490 C.cat  37  ARG37       0.5346
     10  NH1       20.7510   18.7000   67.7290 N.pl3  37  ARG37       0.1354
     11  NH2       20.1280   19.8930   65.8830 N.pl3  37  ARG37       0.1354
     12  N         17.6820   16.2600   63.2810 N.am   38  GLU38      -0.1979
     13  CA        18.2560   16.6370   61.9760 C.3    38  GLU38       0.1602
     14  C         17.3480   16.3310   60.7700 C.2    38  GLU38       0.2287
     15  O         17.7430   15.6210   59.8640 O.2    38  GLU38      -0.2864
     16  CB        19.6120   15.9540   61.7800 C.3    38  GLU38       0.0415
     17  CG        20.7980   16.5380   62.5750 C.3    38  GLU38       0.1163
     18  CD        21.1120   15.7800   63.8500 C.2    38  GLU38       0.3649
     19  OE1       20.8810   14.5420   63.8800 O.co2  38  GLU38      -0.2457
     20  OE2       21.6030   16.4250   64.8170 O.co2  38  GLU38      -0.2457
     21  N         25.0610   12.1470   69.3580 N.3    70  ASP70      -0.1225
     22  CA        24.8130   12.2240   67.9090 C.3    70  ASP70       0.1805
     23  C         25.2290   11.0490   67.0440 C.2    70  ASP70       0.2597
     24  O         24.5340   10.6840   66.1250 O.2    70  ASP70      -0.2718
     25  CB        25.4760   13.4620   67.3290 C.3    70  ASP70       0.1424
     26  CG        25.2650   14.6950   68.1810 C.2    70  ASP70       0.3668
     27  OD1       26.0160   14.8560   69.1680 O.co2  70  ASP70      -0.2456
     28  OD2       24.3620   15.4980   67.8630 O.co2  70  ASP70      -0.2456
     29  N         26.3910   10.4800   67.3150 N.am   71  ARG71      -0.1979
     30  CA        26.8730    9.3680   66.5140 C.3    71  ARG71       0.1597
     31  C         26.7470    8.0160   67.2040 C.2    71  ARG71       0.2287
     32  O         27.3490    7.8160   68.2560 O.2    71  ARG71      -0.2864
     33  CB        28.3310    9.6250   66.1360 C.3    71  ARG71       0.0334
     34  CG        28.5400   10.7840   65.1830 C.3    71  ARG71       0.0492
     35  CD        29.9670   11.2930   65.2280 C.3    71  ARG71       0.2205
     36  NE        29.9830   12.5640   65.9270 N.pl3  71  ARG71      -0.0865
     37  CZ        30.6580   12.8210   67.0400 C.cat  71  ARG71       0.5346
     38  NH1       31.4300   11.9030   67.6180 N.pl3  71  ARG71       0.1354
     39  NH2       30.4490   13.9750   67.6530 N.pl3  71  ARG71       0.1354
     40  N         21.4080    4.5960   64.5340 N.3    75  ARG75      -0.1245
     41  CA        20.7500    5.6890   63.7900 C.3    75  ARG75       0.1563
     42  C         20.5280    5.2980   62.3380 C.2    75  ARG75       0.2260
     43  O         21.2120    4.4310   61.8420 O.2    75  ARG75      -0.2867
     44  CB        21.5910    6.9530   63.8120 C.3    75  ARG75       0.0307
     45  CG        21.8540    7.5000   65.1910 C.3    75  ARG75       0.0489
     46  CD        22.1710    8.9710   65.0910 C.3    75  ARG75       0.2205
     47  NE        20.9910    9.8330   65.2230 N.pl3  75  ARG75      -0.0865
     48  CZ        21.0590   11.1600   65.2270 C.cat  75  ARG75       0.5346
     49  NH1       22.2330   11.7460   65.0800 N.pl3  75  ARG75       0.1354
     50  NH2       20.0000   11.9050   65.4930 N.pl3  75  ARG75       0.1354
     51  N         24.7640    8.3040   60.5200 N.3    98  TRP98      -0.1227
     52  CA        24.5090    9.4350   61.4350 C.3    98  TRP98       0.1737
     53  C         24.6670   10.8420   60.8040 C.2    98  TRP98       0.2596
     54  O         24.7460   11.8790   61.5450 O.2    98  TRP98      -0.2718
     55  CB        25.3620    9.3330   62.7200 C.3    98  TRP98       0.0564
     56  CG        26.7720    8.7780   62.5830 C.ar   98  TRP98       0.0003
     57  CD1       27.2100    7.5640   63.0260 C.ar   98  TRP98       0.0946
     58  CD2       27.9200    9.4210   62.0010 C.ar   98  TRP98       0.0152
     59  NE1       28.5380    7.4050   62.7660 N.ar   98  TRP98      -0.2442
     60  CE2       29.0080    8.5250   62.1370 C.ar   98  TRP98       0.0810
     61  CE3       28.1420   10.6590   61.3780 C.ar   98  TRP98       0.0012
     62  CZ2       30.3010    8.8290   61.6730 C.ar   98  TRP98       0.0191
     63  CZ3       29.4270   10.9650   60.9200 C.ar   98  TRP98       0.0001
     64  CH2       30.4920   10.0500   61.0710 C.ar   98  TRP98       0.0015
     65  N         24.7140   10.8990   59.4670 N.am   99  SER99      -0.1952
     66  CA        24.8570   12.1610   58.7060 C.3    99  SER99       0.1924
     67  C         24.3260   11.8690   57.3030 C.2    99  SER99       0.2314
     68  O         24.6140   10.7900   56.7640 O.2    99  SER99      -0.2863
     69  CB        26.3290   12.5750   58.6220 C.3    99  SER99       0.2116
     70  OG        26.4550   13.9270   58.2160 O.3    99  SER99      -0.2180
     71  N         35.8340   12.9900   61.7290 N.3   142  ILE142     -0.1245
     72  CA        34.3900   13.0960   61.4430 C.3   142  ILE142      0.1561
     73  C         33.9590   13.6360   60.0670 C.2   142  ILE142      0.2260
     74  O         33.6260   14.8190   59.9100 O.2   142  ILE142     -0.2867
     75  CB        33.5800   13.8590   62.5660 C.3   142  ILE142      0.0252
     76  CG1       33.9650   13.3580   63.9610 C.3   142  ILE142      0.0019
     77  CG2       32.0610   13.6500   62.3690 C.3   142  ILE142      0.0019
     78  CD1       33.3680   14.2000   65.0780 C.3   142  ILE142      0.0001
     79  N         31.5350   14.5000   57.3620 N.3   144  ARG144     -0.1245
     80  CA        30.1430   14.9290   57.4740 C.3   144  ARG144      0.1563
     81  C         29.5650   15.6130   56.2220 C.2   144  ARG144      0.2260
     82  O         30.3120   16.0250   55.3330 O.2   144  ARG144     -0.2867
     83  CB        30.0370   15.8510   58.6850 C.3   144  ARG144      0.0307
     84  CG        31.1300   16.9170   58.7410 C.3   144  ARG144      0.0489
     85  CD        31.2790   17.5040   60.1340 C.3   144  ARG144      0.2205
     86  NE        32.1890   18.6480   60.1410 N.pl3 144  ARG144     -0.0865
     87  CZ        33.3920   18.6510   60.7020 C.cat 144  ARG144      0.5346
     88  NH1       33.8580   17.5750   61.3020 N.pl3 144  ARG144      0.1354
     89  NH2       34.1120   19.7580   60.7070 N.pl3 144  ARG144      0.1354
     90  N         22.8620   17.5720   55.6670 N.3   147  GLU147     -0.1245
     91  CA        21.7900   17.4910   56.6650 C.3   147  GLU147      0.1567
     92  C         20.4580   18.0220   56.1080 C.2   147  GLU147      0.2260
     93  O         19.4840   18.3030   56.8770 O.2   147  GLU147     -0.2867
     94  CB        22.2150   18.2240   57.9580 C.3   147  GLU147      0.0388
     95  CG        22.5040   17.3250   59.1680 C.3   147  GLU147      0.1160
     96  CD        23.4860   16.1800   58.8910 C.2   147  GLU147      0.3649
     97  OE1       23.0600   15.1820   58.2830 O.co2 147  GLU147     -0.2457
     98  OE2       24.6610   16.2560   59.3300 O.co2 147  GLU147     -0.2457
     99  N         36.4540   21.3060   63.7300 N.3   166  ALA166     -0.1245
    100  CA        35.2430   22.1090   63.8800 C.3   166  ALA166      0.1562
    101  C         35.5340   23.4490   64.5380 C.2   166  ALA166      0.2260
    102  O         34.6530   24.3230   64.6040 O.2   166  ALA166     -0.2867
    103  CB        34.2450   21.3470   64.7470 C.3   166  ALA166      0.0290
    104  N         30.1560   24.2070   56.7050 N.3   196  GLU196     -0.1231
    105  CA        29.4180   23.1610   57.4040 C.3   196  GLU196      0.1699
    106  C         27.9170   23.2440   57.1150 C.2   196  GLU196      0.2588
    107  O         27.3830   24.3190   56.9470 O.2   196  GLU196     -0.2718
    108  CB        29.6250   23.2770   58.9250 C.3   196  GLU196      0.0402
    109  CG        30.5690   22.2500   59.5280 C.3   196  GLU196      0.1161
    110  CD        30.6670   22.3020   61.0700 C.2   196  GLU196      0.3649
    111  OE1       29.7630   22.8370   61.7450 O.co2 196  GLU196     -0.2457
    112  OE2       31.6680   21.7840   61.6150 O.co2 196  GLU196     -0.2457
    113  N         27.2790   22.0840   57.0170 N.am  197  GLU197     -0.2033
    114  CA        25.8320   21.9750   56.8220 C.3   197  GLU197      0.1288
    115  C         25.1760   22.9260   55.7990 C.3   197  GLU197      0.2036
    116  O         24.2850   23.7910   56.1580 O.3   197  GLU197     -0.2185
    117  CB        25.1390   22.1170   58.1850 C.3   197  GLU197      0.0362
    118  CG        25.4880   21.0220   59.1820 C.3   197  GLU197      0.1159
    119  CD        25.0750   21.3270   60.6140 C.2   197  GLU197      0.3649
    120  OE1       24.6390   22.4680   60.8900 O.co2 197  GLU197     -0.2457
    121  OE2       25.2170   20.4190   61.4720 O.co2 197  GLU197     -0.2457
    122  N         27.2220   27.1030   57.1000 N.3   212  ARG212     -0.1245
    123  CA        27.5990   27.4420   58.4890 C.3   212  ARG212      0.1563
    124  C         29.1140   27.4510   58.7900 C.2   212  ARG212      0.2260
    125  O         29.8310   26.4890   58.5270 O.2   212  ARG212     -0.2867
    126  CB        26.9320   26.4610   59.4680 C.3   212  ARG212      0.0307
    127  CG        27.5220   26.4150   60.8960 C.3   212  ARG212      0.0489
    128  CD        26.8050   25.3380   61.6760 C.3   212  ARG212      0.2205
    129  NE        27.4390   24.8780   62.9130 N.pl3 212  ARG212     -0.0865
    130  CZ        26.8430   24.0720   63.7990 C.cat 212  ARG212      0.5346
    131  NH1       25.6080   23.6240   63.6100 N.pl3 212  ARG212      0.1354
    132  NH2       27.4950   23.6920   64.8800 N.pl3 212  ARG212      0.1354
    133  N         31.3620   27.2910   61.7060 N.3   214  ASN214     -0.1240
    134  CA        31.3530   26.9650   63.1470 C.3   214  ASN214      0.1653
    135  C         32.5790   27.4830   63.9460 C.2   214  ASN214      0.2266
    136  O         32.5410   27.6280   65.1720 O.2   214  ASN214     -0.2867
    137  CB        31.1850   25.4610   63.3040 C.3   214  ASN214      0.1155
    138  CG        30.8620   25.0320   64.7260 C.2   214  ASN214      0.2627
    139  OD1       31.6560   24.3820   65.3740 O.2   214  ASN214     -0.2716
    140  ND2       29.6740   25.3720   65.1990 N.am  214  ASN214     -0.0877
    141  N         30.6240   27.7790   67.6490 N.3   266  ASN266     -0.1240
    142  CA        29.2160   27.5350   67.7160 C.3   266  ASN266      0.1653
    143  C         28.4860   28.1270   66.5440 C.2   266  ASN266      0.2266
    144  O         28.9310   29.1280   65.9490 O.2   266  ASN266     -0.2867
    145  CB        28.6500   28.0580   69.0240 C.3   266  ASN266      0.1155
    146  CG        27.8620   27.0020   69.7550 C.2   266  ASN266      0.2627
    147  OD1       27.4340   25.9990   69.1340 O.2   266  ASN266     -0.2716
    148  ND2       27.6870   27.1720   71.0650 N.am  266  ASN266     -0.0877
    149  N         18.7710   28.9900   70.8260 N.3   290  ARG290     -0.1245
    150  CA        17.8460   28.5640   69.7900 C.3   290  ARG290      0.1563
    151  C         16.3670   28.7230   70.1540 C.2   290  ARG290      0.2260
    152  O         15.7260   27.7500   70.5190 O.2   290  ARG290     -0.2867
    153  CB        18.1450   27.1010   69.4280 C.3   290  ARG290      0.0307
    154  CG        19.5850   26.8500   68.8800 C.3   290  ARG290      0.0489
    155  CD        19.8900   25.3340   68.6170 C.3   290  ARG290      0.2205
    156  NE        21.2480   25.1010   68.0820 N.pl3 290  ARG290     -0.0865
    157  CZ        21.7990   23.8940   67.8790 C.cat 290  ARG290      0.5346
    158  NH1       21.1160   22.7880   68.1560 N.pl3 290  ARG290      0.1354
    159  NH2       23.0480   23.7960   67.4240 N.pl3 290  ARG290      0.1354
    160  N         17.2630   23.7830   63.9250 N.3   324  TYR324     -0.1241
    161  CA        17.7150   23.8390   62.5340 C.3   324  TYR324      0.1605
    162  C         16.6430   24.3220   61.5470 C.2   324  TYR324      0.2264
    163  O         15.5040   24.3780   61.8770 O.2   324  TYR324     -0.2867
    164  CB        18.1930   22.4440   62.0960 C.3   324  TYR324      0.0534
    165  CG        19.5560   22.0110   62.5850 C.ar  324  TYR324     -0.0201
    166  CD1       20.2320   22.6950   63.6010 C.ar  324  TYR324     -0.0009
    167  CD2       20.2010   20.9360   61.9610 C.ar  324  TYR324     -0.0009
    168  CE1       21.5200   22.3230   63.9780 C.ar  324  TYR324      0.0417
    169  CE2       21.4940   20.5570   62.3340 C.ar  324  TYR324      0.0417
    170  CZ        22.1440   21.2620   63.3300 C.ar  324  TYR324      0.1957
    171  OH        23.4450   20.9470   63.5650 O.3   324  TYR324     -0.2866
@<TRIPOS>BOND
     1    82    81    2
     2    90    91    1
     3   115   116    1
     4   115   114    1
     5    92    91    1
     6    92    93    2
     7    81    80    1
     8    91    94    1
     9   104   105    1
    10    68    67    2
    11   114   113    1
    12   114   117    1
    13   107   106    2
    14   113   106   am
    15   122   123    1
    16   106   105    1
    17    67    66    1
    18    79    80    1
    19   105   108    1
    20    80    83    1
    21    94    95    1
    22   117   118    1
    23    70    69    1
    24    97    96   ar
    25   123   124    1
    26   123   126    1
    27   125   124    2
    28    69    66    1
    29    83    84    1
    30    66    65    1
    31    84    85    1
    32    96    95    1
    33    96    98   ar
    34   108   109    1
    35   118   119    1
    36    65    53   am
    37   126   127    1
    38   109   110    1
    39    15    14    2
    40    74    73    2
    41    73    72    1
    42    85    86    1
    43    86    87    2
    44    51    52    1
    45   119   120   ar
    46   119   121   ar
    47    87    89    1
    48    87    88    1
    49    14    13    1
    50    53    52    1
    51    53    54    2
    52   127   128    1
    53    63    64   ar
    54    63    61   ar
    55   110   112   ar
    56   110   111   ar
    57    64    62   ar
    58    61    58   ar
    59    52    55    1
    60    72    71    1
    61    72    75    1
    62   162   163    2
    63   162   161    1
    64    62    60   ar
    65   128   129    1
    66   133   134    1
    67    16    13    1
    68    16    17    1
    69    43    42    2
    70   167   169   ar
    71   167   165   ar
    72    13    12    1
    73    58    60   ar
    74    58    56   ar
    75   164   161    1
    76   164   165    1
    77    60    59   ar
    78   169   170   ar
    79    42    41    1
    80    77    75    1
    81   161   160    1
    82    75    76    1
    83    17    18    1
    84    56    55    1
    85    56    57   ar
    86   165   166   ar
    87     4     3    2
    88    59    57   ar
    89   129   130    2
    90   134   137    1
    91   134   135    1
    92    12     3   am
    93   137   138    1
    94   170   171    1
    95   170   168   ar
    96     3     2    1
    97   166   168   ar
    98   131   130    1
    99    99   100    1
   100    41    44    1
   101    41    40    1
   102   130   132    1
   103    44    45    1
   104    18    19   ar
   105    18    20   ar
   106   100   101    1
   107   100   103    1
   108   135   136    2
   109    76    78    1
   110   101   102    2
   111   138   140   am
   112   138   139    2
   113     2     1    1
   114     2     5    1
   115    49    48    1
   116    46    45    1
   117    46    47    1
   118    34    35    1
   119    34    33    1
   120    47    48    2
   121    48    50    1
   122    35    36    1
   123    11     9    1
   124    36    37    2
   125   144   143    2
   126     5     6    1
   127    24    23    2
   128    33    30    1
   129    30    31    1
   130    30    29    1
   131   143   142    1
   132     8     9    2
   133     8     7    1
   134     9    10    1
   135     6     7    1
   136    37    38    1
   137    37    39    1
   138    23    29   am
   139    23    22    1
   140    31    32    2
   141    25    22    1
   142    25    26    1
   143   159   157    1
   144   141   142    1
   145   142   145    1
   146    28    26   ar
   147   157   156    2
   148   157   158    1
   149    22    21    1
   150   156   155    1
   151    26    27   ar
   152   155   154    1
   153   154   153    1
   154   145   146    1
   155   147   146    2
   156   153   150    1
   157   146   148   am
   158   150   151    1
   159   150   149    1
   160   151   152    2
