@<TRIPOS>MOLECULE
tmp/1io6A00.pdb
 171 170 0 0 0
SMALL
GASTEIGER

@<TRIPOS>ATOM
      1  N         18.4730    1.1390    6.2250 N.3     8  LEU8       -0.1231
      2  CA        19.8460    0.5990    6.3850 C.3     8  LEU8        0.1693
      3  C         20.8280    1.6080    5.8050 C.2     8  LEU8        0.2592
      4  O         21.9850    1.6560    6.1690 O.2     8  LEU8       -0.2718
      5  CB        19.9920   -0.6960    5.5960 C.3     8  LEU8        0.0284
      6  CG        18.8550   -1.6370    5.9450 C.3     8  LEU8        0.0019
      7  CD1       18.3650   -2.3180    4.6690 C.3     8  LEU8        0.0001
      8  CD2       19.3680   -2.6780    6.9380 C.3     8  LEU8        0.0001
      9  N         20.3630    2.4050    4.8840 N.am    9  PHE9       -0.1962
     10  CA        21.2330    3.4050    4.2440 C.3     9  PHE9        0.1771
     11  C         20.4380    4.6800    4.0330 C.2     9  PHE9        0.2620
     12  O         19.3260    4.6650    3.5450 O.2     9  PHE9       -0.2715
     13  CB        21.6890    2.8950    2.8900 C.3     9  PHE9        0.0574
     14  CG        22.3460    1.5700    3.0990 C.ar    9  PHE9       -0.0200
     15  CD1       23.3820    1.4740    4.0210 C.ar    9  PHE9       -0.0042
     16  CD2       21.9140    0.4420    2.3980 C.ar    9  PHE9       -0.0042
     17  CE1       23.9980    0.2530    4.2500 C.ar    9  PHE9       -0.0003
     18  CE2       22.5300   -0.7920    2.6260 C.ar    9  PHE9       -0.0003
     19  CZ        23.5750   -0.8880    3.5530 C.ar    9  PHE9       -0.0000
     20  N         21.0060    5.7720    4.3820 N.am   10  ASP10      -0.1957
     21  CA        20.3010    7.0690    4.1950 C.3    10  ASP10       0.1840
     22  C         19.7010    7.0950    2.7900 C.2    10  ASP10       0.2622
     23  O         20.3330    6.6940    1.8320 O.2    10  ASP10      -0.2715
     24  CB        21.2920    8.2230    4.3570 C.3    10  ASP10       0.1450
     25  CG        21.9320    8.5400    3.0030 C.2    10  ASP10       0.3671
     26  OD1       21.3630    9.3340    2.2730 O.co2  10  ASP10      -0.2456
     27  OD2       22.9790    7.9810    2.7200 O.co2  10  ASP10      -0.2456
     28  N         18.4840    7.5430    2.6510 N.am   11  PHE11      -0.1974
     29  CA        17.8650    7.5640    1.2970 C.3    11  PHE11       0.1639
     30  C         17.6080    9.0010    0.8480 C.2    11  PHE11       0.2290
     31  O         17.4550    9.9030    1.6490 O.2    11  PHE11      -0.2864
     32  CB        16.5360    6.8090    1.3300 C.3    11  PHE11       0.0560
     33  CG        15.8550    6.9450   -0.0100 C.ar   11  PHE11      -0.0200
     34  CD1       16.2220    6.1080   -1.0700 C.ar   11  PHE11      -0.0042
     35  CD2       14.8590    7.9120   -0.1930 C.ar   11  PHE11      -0.0042
     36  CE1       15.5920    6.2370   -2.3140 C.ar   11  PHE11      -0.0003
     37  CE2       14.2300    8.0420   -1.4360 C.ar   11  PHE11      -0.0003
     38  CZ        14.5970    7.2030   -2.4990 C.ar   11  PHE11      -0.0000
     39  N         14.5460   10.7900   -5.4060 N.3    14  GLN14      -0.1231
     40  CA        15.0420   10.8240   -6.7940 C.3    14  GLN14       0.1698
     41  C         13.9440   11.3530   -7.7180 C.2    14  GLN14       0.2592
     42  O         14.2130   11.9140   -8.7620 O.2    14  GLN14      -0.2718
     43  CB        15.4550    9.4140   -7.2190 C.3    14  GLN14       0.0381
     44  CG        16.6330    8.9510   -6.3600 C.3    14  GLN14       0.0905
     45  CD        17.4860    7.9600   -7.1520 C.2    14  GLN14       0.2608
     46  OE1       17.0850    7.5000   -8.2030 O.2    14  GLN14      -0.2717
     47  NE2       18.6550    7.6100   -6.6910 N.am   14  GLN14      -0.0878
     48  N         12.7080   11.1850   -7.3370 N.am   15  GLU15      -0.1979
     49  CA        11.5900   11.6850   -8.1860 C.3    15  GLU15       0.1602
     50  C         10.8760   12.8200   -7.4480 C.2    15  GLU15       0.2287
     51  O         11.4870   13.5740   -6.7160 O.2    15  GLU15      -0.2864
     52  CB        10.6090   10.5420   -8.4620 C.3    15  GLU15       0.0415
     53  CG        11.3470    9.3920   -9.1520 C.3    15  GLU15       0.1163
     54  CD        10.6090    9.0070  -10.4360 C.2    15  GLU15       0.3649
     55  OE1        9.4490    8.6420  -10.3430 O.co2  15  GLU15      -0.2457
     56  OE2       11.2180    9.0830  -11.4900 O.co2  15  GLU15      -0.2457
     57  N          8.9160   10.8870   -3.5720 N.3    18  GLU18      -0.1245
     58  CA         9.5220    9.6720   -2.9550 C.3    18  GLU18       0.1567
     59  C          9.8880    9.9740   -1.5040 C.2    18  GLU18       0.2260
     60  O         10.3030   11.0670   -1.1740 O.2    18  GLU18      -0.2867
     61  CB        10.7850    9.2730   -3.7200 C.3    18  GLU18       0.0388
     62  CG        10.4790    9.2050   -5.2160 C.3    18  GLU18       0.1160
     63  CD         9.4070    8.1430   -5.4710 C.2    18  GLU18       0.3649
     64  OE1        8.2750    8.3660   -5.0770 O.co2  18  GLU18      -0.2457
     65  OE2        9.7380    7.1260   -6.0570 O.co2  18  GLU18      -0.2457
     66  N          2.5510    1.0100    2.4910 N.3    31  ASP31      -0.1239
     67  CA         1.9840    0.1830    1.3940 C.3    31  ASP31       0.1674
     68  C          3.0890   -0.7030    0.8180 C.2    31  ASP31       0.2266
     69  O          3.7720   -0.3300   -0.1140 O.2    31  ASP31      -0.2867
     70  CB         1.4330    1.0970    0.2990 C.3    31  ASP31       0.1410
     71  CG         0.1340    0.5060   -0.2540 C.2    31  ASP31       0.3668
     72  OD1       -0.4770   -0.2870    0.4430 O.co2  31  ASP31      -0.2456
     73  OD2       -0.2260    0.8580   -1.3650 O.co2  31  ASP31      -0.2456
     74  N          2.9280   -3.0350   -1.1090 N.3    33  SER33      -0.1202
     75  CA         2.3970   -3.7870   -2.2790 C.3    33  SER33       0.2020
     76  C          3.4740   -3.8520   -3.3630 C.2    33  SER33       0.2619
     77  O          3.3410   -4.5570   -4.3440 O.2    33  SER33      -0.2717
     78  CB         1.1590   -3.0790   -2.8280 C.3    33  SER33       0.2103
     79  OG         0.2310   -4.0510   -3.2900 O.3    33  SER33      -0.2182
     80  N          4.5440   -3.1220   -3.1900 N.am   34  ASP34      -0.1960
     81  CA         5.6340   -3.1430   -4.2060 C.3    34  ASP34       0.1825
     82  C          6.7640   -4.0480   -3.7180 C.2    34  ASP34       0.2464
     83  O          7.0140   -4.1430   -2.5330 O.2    34  ASP34      -0.2730
     84  CB         6.1730   -1.7270   -4.4150 C.3    34  ASP34       0.1450
     85  CG         6.4220   -1.4960   -5.9050 C.2    34  ASP34       0.3671
     86  OD1        5.6000   -1.9280   -6.6960 O.co2  34  ASP34      -0.2456
     87  OD2        7.4310   -0.8930   -6.2310 O.co2  34  ASP34      -0.2456
     88  N          7.4080   -4.6930   -4.6520 N.am   35  PRO35      -0.2715
     89  CA         8.5150   -5.6130   -4.3630 C.3    35  PRO35       0.1536
     90  C          9.8200   -4.8510   -4.0980 C.2    35  PRO35       0.2599
     91  O         10.7310   -5.3720   -3.4840 O.2    35  PRO35      -0.2715
     92  CB         8.6290   -6.4510   -5.6360 C.3    35  PRO35       0.0310
     93  CG         7.9910   -5.6120   -6.7640 C.3    35  PRO35       0.0237
     94  CD         7.0860   -4.5680   -6.0860 C.3    35  PRO35       0.0939
     95  N          9.9340   -3.6340   -4.5620 N.am   36  ASN36      -0.1959
     96  CA        11.2010   -2.8800   -4.3320 C.3    36  ASN36       0.1819
     97  C         10.9090   -1.4450   -3.8800 C.2    36  ASN36       0.2621
     98  O         11.8070   -0.7310   -3.4940 O.2    36  ASN36      -0.2715
     99  CB        12.0070   -2.8430   -5.6310 C.3    36  ASN36       0.1195
    100  CG        11.4090   -3.8320   -6.6320 C.2    36  ASN36       0.2630
    101  OD1       10.3810   -3.5690   -7.2250 O.2    36  ASN36      -0.2716
    102  ND2       12.0130   -4.9690   -6.8470 N.am   36  ASN36      -0.0877
    103  N          9.6760   -1.0110   -3.9160 N.am   37  TRP37      -0.1974
    104  CA         9.3700    0.3830   -3.4720 C.3    37  TRP37       0.1640
    105  C          8.1300    0.3700   -2.5850 C.2    37  TRP37       0.2290
    106  O          7.0150    0.3260   -3.0670 O.2    37  TRP37      -0.2864
    107  CB         9.0980    1.2780   -4.6820 C.3    37  TRP37       0.0576
    108  CG        10.3990    1.7560   -5.2240 C.ar   37  TRP37       0.0006
    109  CD1       11.1280    1.0950   -6.1380 C.ar   37  TRP37       0.0946
    110  CD2       11.1360    2.9720   -4.9040 C.ar   37  TRP37       0.0152
    111  NE1       12.2900    1.8050   -6.3840 N.ar   37  TRP37      -0.2442
    112  CE2       12.3380    2.9740   -5.6500 C.ar   37  TRP37       0.0810
    113  CE3       10.8880    4.0580   -4.0450 C.ar   37  TRP37       0.0012
    114  CZ2       13.2620    4.0120   -5.5450 C.ar   37  TRP37       0.0191
    115  CZ3       11.8160    5.1080   -3.9430 C.ar   37  TRP37       0.0001
    116  CH2       13.0010    5.0810   -4.6900 C.ar   37  TRP37       0.0015
    117  N          5.4060    2.0860   -0.3890 N.3    39  LYS39      -0.1245
    118  CA         4.8690    3.4300   -0.1450 C.3    39  LYS39       0.1561
    119  C          4.7290    3.5830    1.3380 C.2    39  LYS39       0.2260
    120  O          3.8160    3.0690    1.9380 O.2    39  LYS39      -0.2867
    121  CB         3.4980    3.5680   -0.7590 C.3    39  LYS39       0.0271
    122  CG         3.1660    5.0470   -0.8360 C.3    39  LYS39       0.0035
    123  CD         2.4480    5.4840    0.4270 C.3    39  LYS39       0.0206
    124  CE         3.3560    6.4430    1.1790 C.3    39  LYS39       0.1093
    125  NZ         2.7260    7.7940    1.1860 N.3    39  LYS39      -0.1314
    126  N          7.1380    7.1720   -1.8530 N.3    48  MET48      -0.1245
    127  CA         7.7090    5.8730   -2.3020 C.3    48  MET48       0.1570
    128  C          9.1910    5.7990   -1.9590 C.2    48  MET48       0.2261
    129  O          9.9650    6.6830   -2.2630 O.2    48  MET48      -0.2867
    130  CB         7.5630    5.7070   -3.8180 C.3    48  MET48       0.0387
    131  CG         6.1280    5.9950   -4.2620 C.3    48  MET48       0.0595
    132  SD         4.9420    5.1320   -3.1990 S.3    48  MET48      -0.1393
    133  CE         5.8130    3.5530   -3.0120 C.3    48  MET48       0.0692
    134  N         12.5880    2.8230   -1.6160 N.3    50  PRO50      -0.2102
    135  CA        13.0300    1.4650   -1.9370 C.3    50  PRO50       0.1504
    136  C         13.0440    0.6050   -0.6740 C.2    50  PRO50       0.2576
    137  O         13.7570    0.8760    0.2700 O.2    50  PRO50      -0.2718
    138  CB        14.4250    1.6660   -2.5210 C.3    50  PRO50       0.0282
    139  CG        14.9190    3.0390   -2.0080 C.3    50  PRO50       0.0208
    140  CD        13.6560    3.8430   -1.6510 C.3    50  PRO50       0.0893
    141  N         12.2360   -0.4190   -0.6470 N.am   51  ARG51      -0.1966
    142  CA        12.1760   -1.2910    0.5550 C.3    51  ARG51       0.1729
    143  C         13.5780   -1.7800    0.9140 C.2    51  ARG51       0.2616
    144  O         13.8280   -2.2270    2.0150 O.2    51  ARG51      -0.2715
    145  CB        11.2670   -2.4920    0.2750 C.3    51  ARG51       0.0348
    146  CG        12.0220   -3.6120   -0.4450 C.3    51  ARG51       0.0492
    147  CD        12.8520   -4.4190    0.5520 C.3    51  ARG51       0.2205
    148  NE        12.3330   -5.8140    0.6190 N.pl3  51  ARG51      -0.0865
    149  CZ        13.1580   -6.8230    0.5510 C.cat  51  ARG51       0.5346
    150  NH1       14.0070   -7.0380    1.5180 N.pl3  51  ARG51       0.1354
    151  NH2       13.1320   -7.6180   -0.4830 N.pl3  51  ARG51       0.1354
    152  N         14.4930   -1.7230   -0.0090 N.am   52  ASN52      -0.1958
    153  CA        15.8690   -2.2090    0.2930 C.3    52  ASN52       0.1819
    154  C         16.6300   -1.1600    1.0960 C.2    52  ASN52       0.2621
    155  O         17.4130   -1.4840    1.9650 O.2    52  ASN52      -0.2715
    156  CB        16.6130   -2.5030   -1.0110 C.3    52  ASN52       0.1195
    157  CG        17.4000   -3.8070   -0.8700 C.2    52  ASN52       0.2630
    158  OD1       17.4940   -4.3610    0.2070 O.2    52  ASN52      -0.2716
    159  ND2       17.9760   -4.3240   -1.9210 N.am   52  ASN52      -0.0877
    160  N         16.4000    0.0940    0.8350 N.am   53  TYR53      -0.1974
    161  CA        17.1080    1.1410    1.6150 C.3    53  TYR53       0.1639
    162  C         16.7520    0.9740    3.0930 C.2    53  TYR53       0.2290
    163  O         17.3710    1.5600    3.9560 O.2    53  TYR53      -0.2864
    164  CB        16.6700    2.5260    1.1390 C.3    53  TYR53       0.0560
    165  CG        17.7070    3.0890    0.1960 C.ar   53  TYR53      -0.0198
    166  CD1       17.9400    2.4760   -1.0410 C.ar   53  TYR53      -0.0009
    167  CD2       18.4370    4.2270    0.5610 C.ar   53  TYR53      -0.0009
    168  CE1       18.9020    3.0010   -1.9120 C.ar   53  TYR53       0.0417
    169  CE2       19.3990    4.7510   -0.3100 C.ar   53  TYR53       0.0417
    170  CZ        19.6320    4.1380   -1.5470 C.ar   53  TYR53       0.1957
    171  OH        20.5790    4.6560   -2.4060 O.3    53  TYR53      -0.2866
@<TRIPOS>BOND
     1    56    54   ar
     2    54    55   ar
     3    54    53    1
     4    53    52    1
     5    42    41    2
     6    52    49    1
     7    46    45    2
     8    49    50    1
     9    49    48    1
    10    41    48   am
    11    41    40    1
    12    50    51    2
    13   101   100    2
    14    43    40    1
    15    43    44    1
    16    45    47   am
    17    45    44    1
    18   102   100   am
    19    40    39    1
    20    93    94    1
    21    93    92    1
    22    86    85   ar
    23   100    99    1
    24   111   109   ar
    25   111   112   ar
    26    87    85   ar
    27   109   108   ar
    28    94    88    1
    29    65    63   ar
    30    85    84    1
    31   112   114   ar
    32   112   110   ar
    33    92    89    1
    34    99    96    1
    35   114   116   ar
    36    63    62    1
    37    63    64   ar
    38   108   110   ar
    39   108   107    1
    40    62    61    1
    41   110   113   ar
    42   116   115   ar
    43   107   104    1
    44    88    89    1
    45    88    82   am
    46    95    96    1
    47    95    90   am
    48    84    81    1
    49    89    90    1
    50    77    76    2
    51    96    97    1
    52   131   130    1
    53   131   132    1
    54    81    82    1
    55    81    80    1
    56    90    91    2
    57   113   115   ar
    58   103    97   am
    59   103   104    1
    60    97    98    2
    61   130   127    1
    62    61    58    1
    63    82    83    2
    64    57    58    1
    65   104   105    1
    66    76    80   am
    67    76    75    1
    68    79    78    1
    69   132   133    1
    70   106   105    2
    71    58    59    1
    72    78    75    1
    73   138   139    1
    74   138   135    1
    75    38    36   ar
    76    38    37   ar
    77   171   170    1
    78    36    34   ar
    79   127   128    1
    80   127   126    1
    81    75    74    1
    82   129   128    2
    83   139   140    1
    84   135   134    1
    85   135   136    1
    86   159   157   am
    87   168   170   ar
    88   168   166   ar
    89   140   134    1
    90   170   169   ar
    91    59    60    2
    92    37    35   ar
    93    73    71   ar
    94    34    33   ar
    95   166   165   ar
    96   156   157    1
    97   156   153    1
    98   157   158    2
    99   122   121    1
   100   122   123    1
   101   121   118    1
   102   136   141   am
   103   136   137    2
   104   141   142    1
   105   151   149    1
   106   146   145    1
   107   146   147    1
   108   117   118    1
   109   169   167   ar
   110    71    70    1
   111    71    72   ar
   112    35    33   ar
   113   118   119    1
   114    69    68    2
   115    33    32    1
   116   152   153    1
   117   152   143   am
   118   165   167   ar
   119   165   164    1
   120   145   142    1
   121   153   154    1
   122    70    67    1
   123   123   124    1
   124   149   148    2
   125   149   150    1
   126   147   148    1
   127   142   143    1
   128    68    67    1
   129   160   154   am
   130   160   161    1
   131    30    29    1
   132    30    31    2
   133   143   144    2
   134   154   155    2
   135   164   161    1
   136   124   125    1
   137    29    32    1
   138    29    28    1
   139   119   120    2
   140    67    66    1
   141   161   162    1
   142    23    22    2
   143    26    25   ar
   144    16    18   ar
   145    16    14   ar
   146    18    19   ar
   147    28    22   am
   148    27    25   ar
   149    22    21    1
   150    13    14    1
   151    13    10    1
   152    25    24    1
   153   162   163    2
   154    14    15   ar
   155    12    11    2
   156    19    17   ar
   157    15    17   ar
   158    11    10    1
   159    11    20   am
   160    21    24    1
   161    21    20    1
   162    10     9    1
   163     7     6    1
   164     9     3   am
   165     5     6    1
   166     5     2    1
   167     3     4    2
   168     3     2    1
   169     6     8    1
   170     1     2    1
