@<TRIPOS>MOLECULE
tmp/1ioaB00.pdb
 72 68 0 0 0
SMALL
GASTEIGER

@<TRIPOS>ATOM
      1  N         11.8210   19.8140   46.2030 N.3    21  GLY21      -0.1210
      2  CA        11.6920   20.7970   47.2750 C.3    21  GLY21       0.1956
      3  C         12.8810   20.7410   48.2170 C.2    21  GLY21       0.2611
      4  O         13.9630   20.3130   47.8180 O.2    21  GLY21      -0.2717
      5  N         12.6650   21.0400   49.4950 N.am   22  ASN22      -0.1974
      6  CA        13.7630   21.0430   50.4940 C.3    22  ASN22       0.1688
      7  C         14.2600   19.7220   51.0620 C.2    22  ASN22       0.2292
      8  O         15.0500   19.7430   52.0110 O.2    22  ASN22      -0.2864
      9  CB        13.4030   21.9580   51.6670 C.3    22  ASN22       0.1181
     10  CG        13.3500   23.3940   51.2560 C.2    22  ASN22       0.2629
     11  OD1       14.2230   23.8210   50.5380 O.2    22  ASN22      -0.2716
     12  ND2       12.3190   24.1250   51.6610 N.am   22  ASN22      -0.0877
     13  N         17.5370   24.2840   57.8300 N.3    37  GLY37      -0.1225
     14  CA        18.2030   25.4620   57.2800 C.3    37  GLY37       0.1811
     15  C         19.6920   25.6660   57.5090 C.2    37  GLY37       0.2280
     16  O         20.3860   24.8090   58.0720 O.2    37  GLY37      -0.2866
     17  N         13.1500   23.7520   58.8190 N.3    43  ARG43      -0.1231
     18  CA        12.6920   24.8730   57.9940 C.3    43  ARG43       0.1694
     19  C         11.2070   25.1460   58.2390 C.2    43  ARG43       0.2592
     20  O         10.4230   24.2000   58.5290 O.2    43  ARG43      -0.2718
     21  CB        12.9090   24.5940   56.5130 C.3    43  ARG43       0.0321
     22  CG        14.3510   24.4870   56.1450 C.3    43  ARG43       0.0489
     23  CD        14.4950   24.2970   54.6700 C.3    43  ARG43       0.2205
     24  NE        15.8570   23.9230   54.3030 N.pl3  43  ARG43      -0.0865
     25  CZ        16.6860   24.7110   53.6390 C.cat  43  ARG43       0.5346
     26  NH1       16.2900   25.9180   53.2620 N.pl3  43  ARG43       0.1354
     27  NH2       17.9140   24.2990   53.3890 N.pl3  43  ARG43       0.1354
     28  N         10.8380   26.4370   58.2230 N.am   44  VAL44      -0.1966
     29  CA         9.4320   26.8030   58.3880 C.3    44  VAL44       0.1727
     30  C          8.8190   27.0120   56.9870 C.2    44  VAL44       0.2616
     31  O          9.4740   27.4810   56.0500 O.2    44  VAL44      -0.2715
     32  CB         9.1820   28.0050   59.3720 C.3    44  VAL44       0.0290
     33  CG1       10.4150   28.3310   60.2020 C.3    44  VAL44       0.0023
     34  CG2        8.6220   29.2150   58.6560 C.3    44  VAL44       0.0023
     35  N          7.5690   26.6250   56.8430 N.am   45  ASP45      -0.1957
     36  CA         6.9220   26.7200   55.5830 C.3    45  ASP45       0.1840
     37  C          7.8140   26.0420   54.5030 C.2    45  ASP45       0.2623
     38  O          8.1500   26.5980   53.4570 O.2    45  ASP45      -0.2715
     39  CB         6.6280   28.1570   55.2840 C.3    45  ASP45       0.1450
     40  CG         5.5480   28.2970   54.2610 C.2    45  ASP45       0.3671
     41  OD1        4.9270   27.2530   53.9260 O.co2  45  ASP45      -0.2456
     42  OD2        5.3080   29.4300   53.7800 O.co2  45  ASP45      -0.2456
     43  N          8.1760   24.7990   54.7680 N.am   46  SER46      -0.1936
     44  CA         9.0030   24.0800   53.8580 C.3    46  SER46       0.2055
     45  C          8.2570   22.8980   53.3360 C.2    46  SER46       0.2642
     46  O          7.5400   22.2760   54.0750 O.2    46  SER46      -0.2714
     47  CB        10.2170   23.5640   54.6010 C.3    46  SER46       0.2130
     48  OG        10.9130   22.6790   53.7570 O.3    46  SER46      -0.2179
     49  N          8.5630   22.5160   52.0990 N.am   47  LEU47      -0.1977
     50  CA         7.9670   21.3710   51.4140 C.3    47  LEU47       0.1596
     51  C          9.1300   20.6010   50.8050 C.2    47  LEU47       0.2287
     52  O         10.0870   21.1940   50.3220 O.2    47  LEU47      -0.2864
     53  CB         6.9920   21.8210   50.2820 C.3    47  LEU47       0.0297
     54  CG         6.9150   21.1920   48.8440 C.3    47  LEU47       0.0022
     55  CD1        6.3910   19.7920   48.7920 C.3    47  LEU47       0.0001
     56  CD2        6.0050   21.9840   48.0220 C.3    47  LEU47       0.0001
     57  N          5.9220   19.1520   42.7700 N.3    98  PRO98      -0.2116
     58  CA         5.1820   19.3870   44.0090 C.3    98  PRO98       0.1372
     59  C          4.0870   20.3940   43.8130 C.2    98  PRO98       0.2244
     60  O          4.2670   21.3620   43.1210 O.2    98  PRO98      -0.2868
     61  CB         6.2620   19.8980   44.9760 C.3    98  PRO98       0.0268
     62  CG         7.3220   20.4320   44.0750 C.3    98  PRO98       0.0207
     63  CD         7.3530   19.4780   42.9330 C.3    98  PRO98       0.0892
     64  N          1.7740   23.9430   49.2460 N.3   101  LYS101     -0.1245
     65  CA         2.3410   23.7630   50.5680 C.3   101  LYS101      0.1561
     66  C          1.2240   23.7350   51.6310 C.2   101  LYS101      0.2260
     67  O          0.0480   23.5730   51.3070 O.2   101  LYS101     -0.2867
     68  CB         3.3190   24.9010   50.8820 C.3   101  LYS101      0.0271
     69  CG         4.5980   24.9670   50.1300 C.3   101  LYS101      0.0035
     70  CD         5.3160   26.1250   50.7410 C.3   101  LYS101      0.0206
     71  CE         6.7720   26.1690   50.4390 C.3   101  LYS101      0.1093
     72  NZ         7.3330   27.3370   51.1460 N.3   101  LYS101     -0.1314
@<TRIPOS>BOND
     1    57    63    1
     2    57    58    1
     3    63    62    1
     4    60    59    2
     5    59    58    1
     6    58    61    1
     7    62    61    1
     8     1     2    1
     9     2     3    1
    10     4     3    2
    11    56    54    1
    12     3     5   am
    13    55    54    1
    14    54    53    1
    15    64    65    1
    16     5     6    1
    17    69    70    1
    18    69    68    1
    19    53    50    1
    20    52    51    2
    21    71    70    1
    22    71    72    1
    23     6     7    1
    24     6     9    1
    25    11    10    2
    26    65    68    1
    27    65    66    1
    28    51    50    1
    29     7     8    2
    30    10    12   am
    31    10     9    1
    32    67    66    2
    33    50    49    1
    34    49    45   am
    35    26    25    1
    36    45    44    1
    37    45    46    2
    38    27    25    1
    39    38    37    2
    40    25    24    2
    41    48    47    1
    42    42    40   ar
    43    44    47    1
    44    44    43    1
    45    41    40   ar
    46    40    39    1
    47    24    23    1
    48    37    43   am
    49    37    36    1
    50    23    22    1
    51    39    36    1
    52    36    35    1
    53    31    30    2
    54    22    21    1
    55    21    18    1
    56    35    30   am
    57    30    29    1
    58    14    15    1
    59    14    13    1
    60    15    16    2
    61    18    19    1
    62    18    17    1
    63    28    19   am
    64    28    29    1
    65    19    20    2
    66    29    32    1
    67    34    32    1
    68    32    33    1
