@<TRIPOS>MOLECULE
tmp/1ioeA00.pdb
 205 202 0 0 0
SMALL
GASTEIGER

@<TRIPOS>ATOM
      1  N         10.9630   13.9950   13.2030 N.3    42  HIS42      -0.1241
      2  CA        11.1180   13.9100   11.7640 C.3    42  HIS42       0.1621
      3  C         12.5400   14.2930   11.3350 C.2    42  HIS42       0.2264
      4  O         12.9590   13.9820   10.2180 O.2    42  HIS42      -0.2867
      5  CB        10.0910   14.7800   11.0410 C.3    42  HIS42       0.0745
      6  CG        10.3430   16.2420   11.1680 C.ar   42  HIS42       0.0817
      7  ND1        9.7370   17.0180   12.1290 N.ar   42  HIS42      -0.2268
      8  CD2       11.1330   17.0740   10.4510 C.ar   42  HIS42       0.1154
      9  CE1       10.1390   18.2690   11.9980 C.ar   42  HIS42       0.1986
     10  NE2       10.9870   18.3300   10.9870 N.ar   42  HIS42      -0.2212
     11  N          4.7150   10.0690   10.3420 N.3    82  LYS82      -0.1231
     12  CA         4.7150   11.1890    9.4140 C.3    82  LYS82       0.1693
     13  C          3.3020   11.5390    8.9510 C.2    82  LYS82       0.2592
     14  O          3.0340   12.6730    8.5500 O.2    82  LYS82      -0.2718
     15  CB         5.6040   10.8410    8.2140 C.3    82  LYS82       0.0285
     16  CG         5.8210    9.3380    8.0320 C.3    82  LYS82       0.0035
     17  CD         6.7260    8.7690    9.1220 C.3    82  LYS82       0.0206
     18  CE         6.7720    7.2410    9.1170 C.3    82  LYS82       0.1093
     19  NZ         5.5020    6.6140    9.5850 N.3    82  LYS82      -0.1314
     20  N          2.4010   10.5630    9.0250 N.am   83  GLU83      -0.1966
     21  CA         1.0240   10.7590    8.5980 C.3    83  GLU83       0.1733
     22  C          0.2660   11.7870    9.4140 C.2    83  GLU83       0.2617
     23  O         -0.7570   12.2920    8.9720 O.2    83  GLU83      -0.2715
     24  CB         0.2690    9.4360    8.6300 C.3    83  GLU83       0.0429
     25  CG         0.8910    8.4030    9.5380 C.3    83  GLU83       0.1163
     26  CD         2.0660    7.7000    8.8880 C.2    83  GLU83       0.3649
     27  OE1        2.7950    6.9700    9.6000 O.co2  83  GLU83      -0.2457
     28  OE2        2.2480    7.8730    7.6590 O.co2  83  GLU83      -0.2457
     29  N          0.7540   12.1010   10.6070 N.am   84  THR84      -0.1937
     30  CA         0.0820   13.0870   11.4510 C.3    84  THR84       0.2028
     31  C          1.0800   14.0500   12.0420 C.2    84  THR84       0.2642
     32  O          0.7410   15.1840   12.3560 O.2    84  THR84      -0.2714
     33  CB        -0.6210   12.4370   12.6240 C.3    84  THR84       0.1808
     34  OG1        0.3520   11.7540   13.4220 O.3    84  THR84      -0.2208
     35  CG2       -1.6780   11.4630   12.1410 C.3    84  THR84       0.0379
     36  N          2.3100   13.5750   12.2000 N.am   85  TYR85      -0.1973
     37  CA         3.3790   14.3680   12.7820 C.3    85  TYR85       0.1639
     38  C          3.1780   14.4950   14.2930 C.2    85  TYR85       0.2290
     39  O          3.8700   15.2610   14.9640 O.2    85  TYR85      -0.2864
     40  CB         3.4430   15.7550   12.1210 C.3    85  TYR85       0.0560
     41  CG         4.4720   15.8520   11.0120 C.ar   85  TYR85      -0.0198
     42  CD1        5.4190   16.8790   11.0040 C.ar   85  TYR85      -0.0009
     43  CD2        4.5440   14.8830   10.0050 C.ar   85  TYR85      -0.0009
     44  CE1        6.4190   16.9340   10.0280 C.ar   85  TYR85       0.0417
     45  CE2        5.5390   14.9320    9.0290 C.ar   85  TYR85       0.0417
     46  CZ         6.4710   15.9560    9.0530 C.ar   85  TYR85       0.1957
     47  OH         7.4780   15.9870    8.1250 O.3    85  TYR85      -0.2866
     48  N         15.9380   28.1580    6.5250 N.3   132  ARG132     -0.1245
     49  CA        15.7540   29.0930    5.4140 C.3   132  ARG132      0.1563
     50  C         15.3380   30.5150    5.8170 C.2   132  ARG132      0.2260
     51  O         14.8800   30.7410    6.9350 O.2   132  ARG132     -0.2867
     52  CB        14.7620   28.4710    4.4270 C.3   132  ARG132      0.0307
     53  CG        15.1190   27.0060    4.1470 C.3   132  ARG132      0.0489
     54  CD        14.1510   26.2570    3.2320 C.3   132  ARG132      0.2205
     55  NE        14.3500   26.5390    1.8140 N.pl3 132  ARG132     -0.0865
     56  CZ        13.9250   25.7560    0.8260 C.cat 132  ARG132      0.5346
     57  NH1       14.1540   26.1070   -0.4320 N.pl3 132  ARG132      0.1354
     58  NH2       13.2860   24.6200    1.0860 N.pl3 132  ARG132      0.1354
     59  N         10.4070   31.1870    2.3760 N.3   135  GLU135     -0.1245
     60  CA         9.9800   29.8370    2.0180 C.3   135  GLU135      0.1567
     61  C         10.8550   29.0510    1.0420 C.2   135  GLU135      0.2260
     62  O         11.2500   27.9230    1.3400 O.2   135  GLU135     -0.2867
     63  CB         8.5470   29.8580    1.4950 C.3   135  GLU135      0.0388
     64  CG         7.8780   28.5080    1.5300 C.3   135  GLU135      0.1160
     65  CD         6.4790   28.5530    0.9760 C.2   135  GLU135      0.3649
     66  OE1        5.6830   29.4030    1.4340 O.co2 135  GLU135     -0.2457
     67  OE2        6.1790   27.7350    0.0830 O.co2 135  GLU135     -0.2457
     68  N         -4.8240   20.8930    9.1320 N.3   162  PHE162     -0.1227
     69  CA        -4.3290   19.6260    9.6670 C.3   162  PHE162      0.1736
     70  C         -4.7190   19.5450   11.1470 C.2   162  PHE162      0.2595
     71  O         -4.7990   20.5750   11.8190 O.2   162  PHE162     -0.2718
     72  CB        -2.8110   19.5680    9.5320 C.3   162  PHE162      0.0547
     73  CG        -2.3320   18.9870    8.2410 C.ar  162  PHE162     -0.0202
     74  CD1       -2.5480   17.6500    7.9490 C.ar  162  PHE162     -0.0042
     75  CD2       -1.6040   19.7580    7.3440 C.ar  162  PHE162     -0.0042
     76  CE1       -2.0370   17.0880    6.7850 C.ar  162  PHE162     -0.0003
     77  CE2       -1.0900   19.2000    6.1740 C.ar  162  PHE162     -0.0003
     78  CZ        -1.3040   17.8670    5.8970 C.ar  162  PHE162     -0.0000
     79  N         -4.9550   18.3340   11.6530 N.am  163  ILE163     -0.1980
     80  CA        -5.3470   18.1410   13.0580 C.3   163  ILE163      0.1595
     81  C         -4.3050   18.6060   14.0860 C.2   163  ILE163      0.2287
     82  O         -3.3480   17.8800   14.3690 O.2   163  ILE163     -0.2864
     83  CB        -5.6300   16.6480   13.3660 C.3   163  ILE163      0.0276
     84  CG1       -6.7590   16.1150   12.4750 C.3   163  ILE163      0.0022
     85  CG2       -5.9690   16.4820   14.8430 C.3   163  ILE163      0.0022
     86  CD1       -7.0200   14.6070   12.6370 C.3   163  ILE163      0.0001
     87  N          8.3990   33.7830   10.7860 N.3   179  ASP179     -0.1225
     88  CA         8.0640   32.4230   11.1820 C.3   179  ASP179      0.1805
     89  C          9.3750   31.6400   11.1640 C.2   179  ASP179      0.2598
     90  O         10.4170   32.1780   10.8070 O.2   179  ASP179     -0.2718
     91  CB         7.1100   31.8170   10.1480 C.3   179  ASP179      0.1424
     92  CG         6.4270   30.5390   10.6350 C.2   179  ASP179      0.3668
     93  OD1        6.9320   29.8980   11.5900 O.co2 179  ASP179     -0.2456
     94  OD2        5.3780   30.1680   10.0500 O.co2 179  ASP179     -0.2456
     95  N          9.3280   30.3780   11.5740 N.am  180  ALA180     -0.1966
     96  CA        10.5030   29.5240   11.5310 C.3   180  ALA180      0.1728
     97  C         10.3430   28.9950   10.1230 C.2   180  ALA180      0.2616
     98  O          9.5550   29.5470    9.3670 O.2   180  ALA180     -0.2715
     99  CB        10.3850   28.4000   12.5320 C.3   180  ALA180      0.0334
    100  N         11.0510   27.9370    9.7550 N.am  181  CYS181     -0.1954
    101  CA        10.9120   27.4100    8.4030 C.3   181  CYS181      0.1843
    102  C         11.7190   26.1340    8.2290 C.2   181  CYS181      0.2625
    103  O         12.1530   25.5340    9.2160 O.2   181  CYS181     -0.2714
    104  CB        11.3600   28.4660    7.3900 C.3   181  CYS181      0.0997
    105  SG        10.9630   28.1180    5.6460 S.3   181  CYS181     -0.0797
    106  N         11.9170   25.7110    6.9830 N.am  182  GLN182     -0.1977
    107  CA        12.6900   24.4990    6.7310 C.3   182  GLN182      0.1601
    108  C         14.0940   24.6340    7.3220 C.2   182  GLN182      0.2287
    109  O         14.7150   25.6910    7.2240 O.2   182  GLN182     -0.2864
    110  CB        12.8080   24.2470    5.2370 C.3   182  GLN182      0.0394
    111  CG        13.4240   22.9170    4.8960 C.3   182  GLN182      0.0908
    112  CD        13.8180   22.8340    3.4400 C.2   182  GLN182      0.2608
    113  OE1       14.8500   23.3850    3.0300 O.2   182  GLN182     -0.2717
    114  NE2       12.9930   22.1570    2.6380 N.am  182  GLN182     -0.0878
    115  N         13.8550   23.1410   11.9620 N.3   185  SER185     -0.1217
    116  CA        13.3110   21.9920   12.6800 C.3   185  SER185      0.1889
    117  C         14.1990   21.4520   13.7980 C.2   185  SER185      0.2288
    118  O         15.4250   21.5310   13.7290 O.2   185  SER185     -0.2866
    119  CB        12.9990   20.8570   11.7010 C.3   185  SER185      0.2089
    120  OG        11.8350   21.1370   10.9400 O.3   185  SER185     -0.2183
    121  N         10.6070   22.9730   17.6020 N.3   203  VAL203     -0.1231
    122  CA        10.2070   23.3400   16.2300 C.3   203  VAL203      0.1692
    123  C          9.8180   22.0980   15.4170 C.2   203  VAL203      0.2593
    124  O         10.6360   21.1970   15.2350 O.2   203  VAL203     -0.2718
    125  CB        11.3400   24.0450   15.4700 C.3   203  VAL203      0.0266
    126  CG1       11.0880   23.9610   13.9880 C.3   203  VAL203      0.0020
    127  CG2       11.4110   25.4910   15.8730 C.3   203  VAL203      0.0020
    128  N          8.5870   22.0720   14.9000 N.am  204  SER204     -0.1938
    129  CA         8.0980   20.9130   14.1430 C.3   204  SER204      0.2055
    130  C          7.6530   21.1110   12.6820 C.2   204  SER204      0.2643
    131  O          8.3780   20.7530   11.7560 O.2   204  SER204     -0.2714
    132  CB         6.9560   20.2520   14.9210 C.3   204  SER204      0.2130
    133  OG         6.5050   19.0750   14.2730 O.3   204  SER204     -0.2179
    134  N          6.4530   21.6490   12.4770 N.am  205  TRP205     -0.1959
    135  CA         5.9270   21.8450   11.1250 C.3   205  TRP205      0.1771
    136  C          5.0360   23.0630   10.9480 C.2   205  TRP205      0.2620
    137  O          4.6250   23.7180   11.9080 O.2   205  TRP205     -0.2715
    138  CB         5.1300   20.6170   10.6670 C.3   205  TRP205      0.0590
    139  CG         3.9630   20.3030   11.5530 C.ar  205  TRP205      0.0006
    140  CD1        4.0040   19.6570   12.7490 C.ar  205  TRP205      0.0946
    141  CD2        2.5980   20.6890   11.3540 C.ar  205  TRP205      0.0152
    142  NE1        2.7540   19.6200   13.3140 N.ar  205  TRP205     -0.2442
    143  CE2        1.8700   20.2460   12.4790 C.ar  205  TRP205      0.0810
    144  CE3        1.9170   21.3690   10.3340 C.ar  205  TRP205      0.0012
    145  CZ2        0.4940   20.4590   12.6170 C.ar  205  TRP205      0.0191
    146  CZ3        0.5480   21.5810   10.4690 C.ar  205  TRP205      0.0001
    147  CH2       -0.1470   21.1260   11.6060 C.ar  205  TRP205      0.0015
    148  N          4.7380   23.3380    9.6840 N.am  206  GLY206     -0.1940
    149  CA         3.8890   24.4560    9.3160 C.3   206  GLY206      0.2014
    150  C          3.5270   24.2960    7.8540 C.2   206  GLY206      0.2639
    151  O          4.1000   23.4430    7.1790 O.2   206  GLY206     -0.2714
    152  N          2.5690   25.0860    7.3680 N.am  207  GLU207     -0.1963
    153  CA         2.1620   25.0410    5.9630 C.3   207  GLU207      0.1733
    154  C          2.8310   26.2170    5.2830 C.2   207  GLU207      0.2617
    155  O          2.3510   27.3500    5.3520 O.2   207  GLU207     -0.2715
    156  CB         0.6490   25.1570    5.8390 C.3   207  GLU207      0.0429
    157  CG        -0.0940   23.9840    6.4350 C.3   207  GLU207      0.1163
    158  CD        -1.5960   24.1660    6.3750 C.2   207  GLU207      0.3649
    159  OE1       -2.1500   24.2170    5.2520 O.co2 207  GLU207     -0.2457
    160  OE2       -2.2260   24.2620    7.4530 O.co2 207  GLU207     -0.2457
    161  N          3.9550   25.9410    4.6370 N.am  208  GLY208     -0.1940
    162  CA         4.6890   27.0010    3.9760 C.3   208  GLY208      0.2014
    163  C          5.5760   27.6890    4.9920 C.2   208  GLY208      0.2639
    164  O          5.9840   27.0690    5.9690 O.2   208  GLY208     -0.2714
    165  N          5.8950   28.9560    4.7640 N.am  209  CYS209     -0.1967
    166  CA         6.7300   29.7010    5.6970 C.3   209  CYS209      0.1712
    167  C          6.2520   31.1470    5.7060 C.2   209  CYS209      0.2296
    168  O          6.2670   31.8380    4.6850 O.2   209  CYS209     -0.2864
    169  CB         8.2330   29.5920    5.3220 C.3   209  CYS209      0.0983
    170  SG         8.9400   27.9140    5.5790 S.3   209  CYS209     -0.0798
    171  N          3.2940   32.2050    5.8930 N.3   211  ARG211     -0.1245
    172  CA         2.0720   32.3900    5.1060 C.3   211  ARG211      0.1563
    173  C          0.9030   32.9840    5.8900 C.2   211  ARG211      0.2260
    174  O          0.5800   32.5250    6.9870 O.2   211  ARG211     -0.2867
    175  CB         1.5920   31.0620    4.5290 C.3   211  ARG211      0.0307
    176  CG         2.5550   30.3320    3.6290 C.3   211  ARG211      0.0489
    177  CD         1.8500   29.1170    3.0400 C.3   211  ARG211      0.2205
    178  NE         2.7200   28.2950    2.2070 N.pl3 211  ARG211     -0.0865
    179  CZ         2.3350   27.1630    1.6260 C.cat 211  ARG211      0.5346
    180  NH1        1.0920   26.7230    1.7860 N.pl3 211  ARG211      0.1354
    181  NH2        3.1950   26.4630    0.9010 N.pl3 211  ARG211      0.1354
    182  N          3.0660   28.8350   13.1820 N.3   216  GLY216     -0.1210
    183  CA         4.1420   27.8940   13.4070 C.3   216  GLY216      0.1956
    184  C          3.6820   26.8210   14.3730 C.2   216  GLY216      0.2612
    185  O          3.2840   27.1210   15.4920 O.2   216  GLY216     -0.2717
    186  N          3.7240   25.5700   13.9420 N.am  217  ILE217     -0.1965
    187  CA         3.3020   24.4770   14.8010 C.3   217  ILE217      0.1727
    188  C          4.5150   23.9100   15.5500 C.2   217  ILE217      0.2616
    189  O          5.4320   23.3540   14.9390 O.2   217  ILE217     -0.2715
    190  CB         2.6300   23.3290   13.9720 C.3   217  ILE217      0.0290
    191  CG1        1.6960   23.9100   12.9010 C.3   217  ILE217      0.0022
    192  CG2        1.8540   22.4020   14.8940 C.3   217  ILE217      0.0023
    193  CD1        0.6990   24.9170   13.4230 C.3   217  ILE217      0.0001
    194  N          4.5290   24.0560   16.8700 N.am  218  TYR218     -0.1974
    195  CA         5.6350   23.5310   17.6590 C.3   218  TYR218      0.1639
    196  C          5.1610   22.3670   18.5360 C.2   218  TYR218      0.2290
    197  O          3.9730   22.2410   18.8160 O.2   218  TYR218     -0.2864
    198  CB         6.2270   24.6310   18.5370 C.3   218  TYR218      0.0560
    199  CG         6.5570   25.9040   17.8010 C.ar  218  TYR218     -0.0198
    200  CD1        5.5540   26.6900   17.2620 C.ar  218  TYR218     -0.0009
    201  CD2        7.8740   26.3280   17.6460 C.ar  218  TYR218     -0.0009
    202  CE1        5.8470   27.8770   16.5770 C.ar  218  TYR218      0.0417
    203  CE2        8.1820   27.5170   16.9620 C.ar  218  TYR218      0.0417
    204  CZ         7.1580   28.2850   16.4260 C.ar  218  TYR218      0.1957
    205  OH         7.4230   29.4290   15.7020 O.3   218  TYR218     -0.2866
@<TRIPOS>BOND
     1    57    56    1
     2    67    65   ar
     3    56    58    1
     4    56    55    2
     5   181   179    1
     6    65    66   ar
     7    65    64    1
     8    61    62    2
     9    61    60    1
    10    63    64    1
    11    63    60    1
    12   179   180    1
    13   179   178    2
    14    55    54    1
    15    60    59    1
    16   178   177    1
    17   114   112   am
    18   113   112    2
    19   177   176    1
    20    54    53    1
    21   112   111    1
    22   176   175    1
    23   162   161    1
    24   162   163    1
    25    53    52    1
    26    52    49    1
    27   175   172    1
    28   161   154   am
    29   168   167    2
    30   165   163   am
    31   165   166    1
    32   111   110    1
    33   163   164    2
    34   172   173    1
    35   172   171    1
    36   110   107    1
    37   159   158   ar
    38   154   155    2
    39   154   153    1
    40   169   170    1
    41   169   166    1
    42    49    50    1
    43    49    48    1
    44   170   105    1
    45   105   104    1
    46   166   167    1
    47    50    51    2
    48   156   153    1
    49   156   157    1
    50   173   174    2
    51    78    77   ar
    52    78    76   ar
    53   153   152    1
    54    77    75   ar
    55   158   157    1
    56   158   160   ar
    57   107   106    1
    58   107   108    1
    59    76    74   ar
    60   106   102   am
    61   151   150    2
    62   109   108    2
    63    75    73   ar
    64   152   150   am
    65   104   101    1
    66    28    26   ar
    67   150   149    1
    68    74    73   ar
    69    16    15    1
    70    16    17    1
    71    47    46    1
    72    15    12    1
    73   102   101    1
    74   102   103    2
    75    73    72    1
    76   101   100    1
    77    14    13    2
    78    21    24    1
    79    21    20    1
    80    21    22    1
    81    24    25    1
    82    26    25    1
    83    26    27   ar
    84    13    20   am
    85    13    12    1
    86    23    22    2
    87    45    46   ar
    88    45    43   ar
    89    46    44   ar
    90    18    17    1
    91    18    19    1
    92    68    69    1
    93   149   148    1
    94    98    97    2
    95    22    29   am
    96    12    11    1
    97    72    69    1
    98    69    70    1
    99   148   136   am
   100   100    97   am
   101    43    41   ar
   102    44    42   ar
   103    94    92   ar
   104    97    96    1
   105    91    92    1
   106    91    88    1
   107     4     3    2
   108   144   146   ar
   109   144   141   ar
   110     8    10   ar
   111     8     6   ar
   112   146   147   ar
   113    29    30    1
   114    92    93   ar
   115   138   135    1
   116   138   139    1
   117    87    88    1
   118    90    89    2
   119   120   119    1
   120   136   135    1
   121   136   137    2
   122    10     9   ar
   123    42    41   ar
   124    41    40    1
   125     5     6    1
   126     5     2    1
   127   135   134    1
   128    70    79   am
   129    70    71    2
   130    89    88    1
   131    89    95   am
   132     6     7   ar
   133     3     2    1
   134   141   139   ar
   135   141   143   ar
   136    30    31    1
   137    30    33    1
   138    96    95    1
   139    96    99    1
   140   139   140   ar
   141   147   145   ar
   142    79    80    1
   143   119   116    1
   144   131   130    2
   145     2     1    1
   146   115   116    1
   147     9     7   ar
   148    31    36   am
   149    31    32    2
   150    40    37    1
   151    35    33    1
   152    36    37    1
   153    84    86    1
   154    84    83    1
   155   134   130   am
   156   143   145   ar
   157   143   142   ar
   158    33    34    1
   159   116   117    1
   160   130   129    1
   161   140   142   ar
   162    37    38    1
   163   191   193    1
   164   191   190    1
   165    80    83    1
   166    80    81    1
   167   182   183    1
   168    83    85    1
   169   183   184    1
   170   118   117    2
   171   186   184   am
   172   186   187    1
   173   190   187    1
   174   190   192    1
   175   126   125    1
   176    81    82    2
   177   129   128    1
   178   129   132    1
   179   133   132    1
   180    38    39    2
   181   184   185    2
   182   187   188    1
   183   128   123   am
   184   189   188    2
   185   124   123    2
   186   123   122    1
   187   125   127    1
   188   125   122    1
   189   188   194   am
   190   205   204    1
   191   122   121    1
   192   204   202   ar
   193   204   203   ar
   194   202   200   ar
   195   194   195    1
   196   203   201   ar
   197   200   199   ar
   198   201   199   ar
   199   195   196    1
   200   195   198    1
   201   199   198    1
   202   196   197    2
