@<TRIPOS>MOLECULE
tmp/1ionA00.pdb
 151 146 0 0 0
SMALL
GASTEIGER

@<TRIPOS>ATOM
      1  N        -24.7820   28.5890   36.7870 N.3    11  GLY11      -0.1210
      2  CA       -24.1490   29.8930   36.8140 C.3    11  GLY11       0.1956
      3  C        -24.6420   30.6700   38.0200 C.2    11  GLY11       0.2612
      4  O        -25.6920   30.3380   38.5770 O.2    11  GLY11      -0.2717
      5  N        -23.8920   31.6920   38.4320 N.am   12  GLY12      -0.1942
      6  CA       -24.2890   32.4880   39.5850 C.3    12  GLY12       0.2014
      7  C        -24.1450   31.7950   40.9390 C.2    12  GLY12       0.2640
      8  O        -24.6400   32.2880   41.9510 O.2    12  GLY12      -0.2714
      9  N        -23.4580   30.6600   40.9880 N.am   13  THR13      -0.1936
     10  CA       -23.3110   29.9740   42.2630 C.3    13  THR13       0.2028
     11  C        -22.1210   30.4360   43.1120 C.2    13  THR13       0.2643
     12  O        -22.0550   30.1120   44.2980 O.2    13  THR13      -0.2714
     13  CB       -23.2780   28.4420   42.0690 C.3    13  THR13       0.1808
     14  OG1      -22.2740   28.0910   41.1120 O.3    13  THR13      -0.2208
     15  CG2      -24.6470   27.9470   41.5790 C.3    13  THR13       0.0379
     16  N        -21.2060   31.2020   42.5140 N.am   14  GLY14      -0.1939
     17  CA       -20.0670   31.7310   43.2480 C.3    14  GLY14       0.2014
     18  C        -18.6770   31.2650   42.8610 C.2    14  GLY14       0.2639
     19  O        -17.7340   31.4230   43.6390 O.2    14  GLY14      -0.2714
     20  N        -18.5330   30.7070   41.6600 N.am   15  LYS15      -0.1963
     21  CA       -17.2380   30.2060   41.2050 C.3    15  LYS15       0.1728
     22  C        -16.1750   31.3030   41.2020 C.2    15  LYS15       0.2617
     23  O        -15.0600   31.1090   41.7040 O.2    15  LYS15      -0.2715
     24  CB       -17.3820   29.5940   39.8110 C.3    15  LYS15       0.0311
     25  CG       -18.2600   28.3480   39.7780 C.3    15  LYS15       0.0038
     26  CD       -18.4000   27.7910   38.3710 C.3    15  LYS15       0.0206
     27  CE       -19.0950   28.7730   37.4460 C.3    15  LYS15       0.1093
     28  NZ       -20.4670   29.0890   37.9360 N.3    15  LYS15      -0.1314
     29  N        -16.5210   32.4640   40.6500 N.am   16  THR16      -0.1937
     30  CA       -15.5790   33.5770   40.6000 C.3    16  THR16       0.2028
     31  C        -15.3030   34.1340   42.0040 C.2    16  THR16       0.2642
     32  O        -14.1660   34.4940   42.3160 O.2    16  THR16      -0.2714
     33  CB       -16.1020   34.7050   39.6730 C.3    16  THR16       0.1808
     34  OG1      -16.2330   34.1840   38.3460 O.3    16  THR16      -0.2208
     35  CG2      -15.1280   35.9160   39.6490 C.3    16  THR16       0.0379
     36  N        -16.3340   34.1970   42.8430 N.am   17  THR17      -0.1950
     37  CA       -16.1850   34.7040   44.2090 C.3    17  THR17       0.1897
     38  C        -15.2530   33.7850   44.9990 C.2    17  THR17       0.2313
     39  O        -14.3420   34.2380   45.7020 O.2    17  THR17      -0.2863
     40  CB       -17.5490   34.7660   44.9290 C.3    17  THR17       0.1794
     41  OG1      -18.4310   35.6280   44.2040 O.3    17  THR17      -0.2208
     42  CG2      -17.3760   35.2780   46.3600 C.3    17  THR17       0.0378
     43  N        -14.3670   37.5850   34.0150 N.3    42  ASN42      -0.1240
     44  CA       -14.7720   38.3950   35.1530 C.3    42  ASN42       0.1653
     45  C        -13.7160   38.5230   36.2690 C.2    42  ASN42       0.2266
     46  O        -13.7440   39.4770   37.0490 O.2    42  ASN42      -0.2867
     47  CB       -16.0580   37.7920   35.7150 C.3    42  ASN42       0.1155
     48  CG       -16.7000   38.6610   36.7530 C.2    42  ASN42       0.2627
     49  OD1      -17.1820   38.1680   37.7740 O.2    42  ASN42      -0.2716
     50  ND2      -16.7260   39.9670   36.5010 N.am   42  ASN42      -0.0877
     51  N        -13.7430   28.5520   36.4990 N.3   115  CYS115     -0.1235
     52  CA       -14.3510   27.9430   35.3220 C.3   115  CYS115      0.1677
     53  C        -15.7730   28.4130   35.0140 C.2   115  CYS115      0.2270
     54  O        -16.4640   28.9340   35.8750 O.2   115  CYS115     -0.2867
     55  CB       -14.3710   26.4200   35.4870 C.3   115  CYS115      0.0956
     56  SG       -12.7520   25.6320   35.7260 S.3   115  CYS115     -0.0801
     57  N        -22.3240   27.3820   49.1540 N.3   163  ASN163     -0.1225
     58  CA       -22.3290   28.8470   49.1220 C.3   163  ASN163      0.1785
     59  C        -23.7370   29.4350   49.0750 C.2   163  ASN163      0.2597
     60  O        -24.7040   28.7570   48.7070 O.2   163  ASN163     -0.2718
     61  CB       -21.5160   29.3430   47.9130 C.3   163  ASN163      0.1169
     62  CG       -21.2680   30.8540   47.9410 C.2   163  ASN163      0.2627
     63  OD1      -21.0410   31.4380   49.0030 O.2   163  ASN163     -0.2716
     64  ND2      -21.2890   31.4860   46.7660 N.am  163  ASN163     -0.0877
     65  N        -23.8350   30.7050   49.4570 N.am  164  ARG164     -0.1979
     66  CA       -25.0960   31.4330   49.4500 C.3   164  ARG164      0.1597
     67  C        -26.0680   30.8430   50.4570 C.2   164  ARG164      0.2287
     68  O        -27.2740   30.8930   50.2570 O.2   164  ARG164     -0.2864
     69  CB       -25.7200   31.3770   48.0500 C.3   164  ARG164      0.0334
     70  CG       -24.8560   31.9610   46.9400 C.3   164  ARG164      0.0492
     71  CD       -25.2100   33.4110   46.6860 C.3   164  ARG164      0.2205
     72  NE       -25.3230   33.6690   45.2580 N.pl3 164  ARG164     -0.0865
     73  CZ       -25.8350   34.7760   44.7310 C.cat 164  ARG164      0.5346
     74  NH1      -26.2910   35.7430   45.5220 N.pl3 164  ARG164      0.1354
     75  NH2      -25.8980   34.9090   43.4110 N.pl3 164  ARG164      0.1354
     76  N        -20.5700   28.8200   53.2930 N.3   188  ILE188     -0.1231
     77  CA       -20.3680   30.2580   53.1880 C.3   188  ILE188      0.1678
     78  C        -21.7610   30.8670   53.1260 C.2   188  ILE188      0.2434
     79  O        -22.5460   30.5620   52.2250 O.2   188  ILE188     -0.2733
     80  CB       -19.5460   30.6100   51.9250 C.3   188  ILE188      0.0265
     81  CG1      -18.1310   30.0320   52.0810 C.3   188  ILE188      0.0019
     82  CG2      -19.5080   32.1390   51.7180 C.3   188  ILE188      0.0020
     83  CD1      -17.3810   29.9430   50.8200 C.3   188  ILE188      0.0001
     84  N        -22.0920   31.7290   54.1040 N.am  189  PRO189     -0.2718
     85  CA       -23.4010   32.3800   54.1770 C.3   189  PRO189      0.1535
     86  C        -23.6410   33.4300   53.1180 C.2   189  PRO189      0.2598
     87  O        -22.6970   34.0010   52.5610 O.2   189  PRO189     -0.2715
     88  CB       -23.4020   33.0170   55.5610 C.3   189  PRO189      0.0310
     89  CG       -22.3520   32.2570   56.3140 C.3   189  PRO189      0.0237
     90  CD       -21.2820   32.0810   55.2770 C.3   189  PRO189      0.0939
     91  N        -24.9150   33.6590   52.8240 N.am  190  GLU190     -0.1964
     92  CA       -25.2670   34.7110   51.9040 C.3   190  GLU190      0.1733
     93  C        -24.8410   35.8860   52.7860 C.2   190  GLU190      0.2616
     94  O        -25.2570   35.9760   53.9470 O.2   190  GLU190     -0.2715
     95  CB       -26.7730   34.7340   51.6610 C.3   190  GLU190      0.0429
     96  CG       -27.2160   35.8220   50.6950 C.3   190  GLU190      0.1163
     97  CD       -26.6350   35.6330   49.3050 C.2   190  GLU190      0.3649
     98  OE1      -26.0290   34.5630   49.0650 O.co2 190  GLU190     -0.2457
     99  OE2      -26.7910   36.5440   48.4510 O.co2 190  GLU190     -0.2457
    100  N        -23.9790   36.7460   52.2580 N.am  191  ASP191     -0.1958
    101  CA       -23.4660   37.8740   53.0170 C.3   191  ASP191      0.1825
    102  C        -23.2060   39.0910   52.1220 C.2   191  ASP191      0.2464
    103  O        -22.3610   39.0430   51.2390 O.2   191  ASP191     -0.2730
    104  CB       -22.1690   37.4590   53.7080 C.3   191  ASP191      0.1450
    105  CG       -21.6280   38.5300   54.6200 C.2   191  ASP191      0.3671
    106  OD1      -22.0870   39.6890   54.5220 O.co2 191  ASP191     -0.2456
    107  OD2      -20.7290   38.2210   55.4230 O.co2 191  ASP191     -0.2456
    108  N        -23.9330   40.2000   52.3540 N.am  192  PRO192     -0.2727
    109  CA       -23.7760   41.4300   51.5690 C.3   192  PRO192      0.1402
    110  C        -22.3170   41.8930   51.4880 C.2   192  PRO192      0.2269
    111  O        -21.9090   42.5010   50.5020 O.2   192  PRO192     -0.2865
    112  CB       -24.6710   42.4220   52.3090 C.3   192  PRO192      0.0296
    113  CG       -25.7970   41.5240   52.8070 C.3   192  PRO192      0.0237
    114  CD       -25.0040   40.3530   53.3610 C.3   192  PRO192      0.0939
    115  N        -19.7190   40.0500   51.0440 N.3   194  ILE194     -0.1231
    116  CA       -19.1170   39.3530   49.9190 C.3   194  ILE194      0.1692
    117  C        -19.4860   40.0710   48.6190 C.2   194  ILE194      0.2591
    118  O        -18.6480   40.2290   47.7280 O.2   194  ILE194     -0.2718
    119  CB       -19.5870   37.8770   49.8670 C.3   194  ILE194      0.0266
    120  CG1      -18.9090   37.0980   50.9980 C.3   194  ILE194      0.0019
    121  CG2      -19.2780   37.2520   48.5020 C.3   194  ILE194      0.0020
    122  CD1      -19.5570   35.7580   51.2950 C.3   194  ILE194      0.0001
    123  N        -20.7390   40.5220   48.5300 N.am  195  ARG195     -0.1980
    124  CA       -21.2340   41.2420   47.3450 C.3   195  ARG195      0.1597
    125  C        -20.5290   42.5940   47.1920 C.2   195  ARG195      0.2287
    126  O        -20.2140   43.0150   46.0820 O.2   195  ARG195     -0.2864
    127  CB       -22.7590   41.4610   47.4470 C.3   195  ARG195      0.0334
    128  CG       -23.3760   42.1640   46.2360 C.3   195  ARG195      0.0492
    129  CD       -23.1270   41.3740   44.9540 C.3   195  ARG195      0.2205
    130  NE       -22.8840   42.2280   43.7890 N.pl3 195  ARG195     -0.0865
    131  CZ       -23.8280   42.9040   43.1340 C.cat 195  ARG195      0.5346
    132  NH1      -25.0980   42.8290   43.5250 N.pl3 195  ARG195      0.1354
    133  NH2      -23.5010   43.6520   42.0840 N.pl3 195  ARG195      0.1354
    134  N        -17.1010   42.0340   45.7270 N.3   198  THR198     -0.1218
    135  CA       -17.1950   41.8330   44.2920 C.3   198  THR198      0.1862
    136  C        -17.2290   43.1870   43.6070 C.2   198  THR198      0.2287
    137  O        -16.4070   43.4620   42.7380 O.2   198  THR198     -0.2866
    138  CB       -18.4810   41.0500   43.9380 C.3   198  THR198      0.1770
    139  OG1      -18.3890   39.7420   44.5030 O.3   198  THR198     -0.2211
    140  CG2      -18.6790   40.9330   42.4170 C.3   198  THR198      0.0375
    141  N        -14.2480   32.2550   54.4020 N.3   217  PHE217     -0.1241
    142  CA       -13.2970   31.9780   53.3270 C.3   217  PHE217      0.1605
    143  C        -11.8960   31.7110   53.8840 C.2   217  PHE217      0.2264
    144  O        -11.1360   30.9360   53.3100 O.2   217  PHE217     -0.2867
    145  CB       -13.2570   33.1320   52.3230 C.3   217  PHE217      0.0534
    146  CG       -14.3460   33.0690   51.2900 C.ar  217  PHE217     -0.0203
    147  CD1      -14.4450   31.9710   50.4350 C.ar  217  PHE217     -0.0042
    148  CD2      -15.2780   34.0960   51.1710 C.ar  217  PHE217     -0.0042
    149  CE1      -15.4570   31.8930   49.4760 C.ar  217  PHE217     -0.0003
    150  CE2      -16.2990   34.0270   50.2120 C.ar  217  PHE217     -0.0003
    151  CZ       -16.3870   32.9250   49.3670 C.ar  217  PHE217     -0.0000
@<TRIPOS>BOND
     1    43    44    1
     2    53    52    1
     3    53    54    2
     4    44    47    1
     5    44    45    1
     6    52    55    1
     7    52    51    1
     8    55    56    1
     9    47    48    1
    10    45    46    2
    11    50    48   am
    12    48    49    2
    13     1     2    1
    14     2     3    1
    15    27    28    1
    16    27    26    1
    17     3     5   am
    18     3     4    2
    19    34    33    1
    20    26    25    1
    21     5     6    1
    22     6     7    1
    23    35    33    1
    24    33    30    1
    25    25    24    1
    26    24    21    1
    27    30    29    1
    28    30    31    1
    29    29    22   am
    30     7     9   am
    31     7     8    2
    32     9    10    1
    33    14    13    1
    34    22    21    1
    35    22    23    2
    36    21    20    1
    37    15    13    1
    38    20    18   am
    39    31    32    2
    40    31    36   am
    41    13    10    1
    42   133   131    1
    43    10    11    1
    44   140   138    1
    45    16    11   am
    46    16    17    1
    47   137   136    2
    48    36    37    1
    49    18    17    1
    50    18    19    2
    51    11    12    2
    52   131   132    1
    53   131   130    2
    54    75    73    1
    55   136   135    1
    56   130   129    1
    57   138   135    1
    58   138   139    1
    59    41    40    1
    60    37    40    1
    61    37    38    1
    62   135   134    1
    63    73    72    2
    64    73    74    1
    65    40    42    1
    66   129   128    1
    67    38    39    2
    68    72    71    1
    69   126   125    2
    70   128   127    1
    71    71    70    1
    72    64    62   am
    73    70    69    1
    74   125   124    1
    75   124   127    1
    76   124   123    1
    77   118   117    2
    78    61    62    1
    79    61    58    1
    80    62    63    2
    81    69    66    1
    82    99    97   ar
    83   121   119    1
    84   123   117   am
    85   117   116    1
    86    60    59    2
    87    98    97   ar
    88    59    58    1
    89    59    65   am
    90    58    57    1
    91    97    96    1
    92   151   149   ar
    93   151   150   ar
    94    66    65    1
    95    66    67    1
    96   149   147   ar
    97   119   116    1
    98   119   120    1
    99   116   115    1
   100   150   148   ar
   101    68    67    2
   102   147   146   ar
   103   111   110    2
   104    96    95    1
   105    83    81    1
   106   120   122    1
   107   148   146   ar
   108   103   102    2
   109   146   145    1
   110   110   109    1
   111   109   112    1
   112   109   108    1
   113    95    92    1
   114    82    80    1
   115    92    93    1
   116    92    91    1
   117    80    81    1
   118    80    77    1
   119   102   108   am
   120   102   101    1
   121    79    78    2
   122   100    93   am
   123   100   101    1
   124   112   113    1
   125   145   142    1
   126   108   114    1
   127    87    86    2
   128    93    94    2
   129   113   114    1
   130    91    86   am
   131   101   104    1
   132    86    85    1
   133    78    77    1
   134    78    84   am
   135    77    76    1
   136   144   143    2
   137   142   143    1
   138   142   141    1
   139   104   105    1
   140    84    85    1
   141    84    90    1
   142    85    88    1
   143   106   105   ar
   144   105   107   ar
   145    90    89    1
   146    88    89    1
