@<TRIPOS>MOLECULE
tmp/1iooA00.pdb
 127 123 0 0 0
SMALL
GASTEIGER

@<TRIPOS>ATOM
      1  N          9.5590  -26.3810   58.6430 N.3    27  ASN27      -0.1225
      2  CA         8.6560  -27.4410   59.1000 C.3    27  ASN27       0.1785
      3  C          7.4830  -27.5990   58.1430 C.2    27  ASN27       0.2597
      4  O          6.3350  -27.7550   58.5560 O.2    27  ASN27      -0.2718
      5  CB         8.1280  -27.1540   60.5110 C.3    27  ASN27       0.1169
      6  CG         7.1770  -28.2360   61.0030 C.2    27  ASN27       0.2627
      7  OD1        7.5210  -29.4180   61.0220 O.2    27  ASN27      -0.2716
      8  ND2        5.9730  -27.8360   61.3960 N.am   27  ASN27      -0.0877
      9  N          7.7870  -27.5610   56.8540 N.am   28  ASN28      -0.1960
     10  CA         6.7790  -27.6960   55.8210 C.3    28  ASN28       0.1819
     11  C          7.4290  -28.1500   54.5370 C.2    28  ASN28       0.2621
     12  O          8.6330  -27.9650   54.3540 O.2    28  ASN28      -0.2715
     13  CB         6.0980  -26.3460   55.6080 C.3    28  ASN28       0.1195
     14  CG         4.6950  -26.4680   55.0410 C.2    28  ASN28       0.2630
     15  OD1        4.1900  -27.5640   54.7950 O.2    28  ASN28      -0.2716
     16  ND2        4.0650  -25.3130   54.8470 N.am   28  ASN28      -0.0877
     17  N          6.6520  -28.7560   53.6490 N.am   29  PHE29      -0.1974
     18  CA         7.2060  -29.2040   52.3870 C.3    29  PHE29       0.1639
     19  C          7.6650  -28.0250   51.5570 C.2    29  PHE29       0.2290
     20  O          7.0660  -26.9490   51.5980 O.2    29  PHE29      -0.2864
     21  CB         6.1870  -30.0160   51.5780 C.3    29  PHE29       0.0560
     22  CG         5.8780  -31.3560   52.1690 C.ar   29  PHE29      -0.0200
     23  CD1        4.9210  -31.4830   53.1660 C.ar   29  PHE29      -0.0042
     24  CD2        6.5670  -32.4920   51.7480 C.ar   29  PHE29      -0.0042
     25  CE1        4.6500  -32.7170   53.7430 C.ar   29  PHE29      -0.0003
     26  CE2        6.3080  -33.7360   52.3200 C.ar   29  PHE29      -0.0003
     27  CZ         5.3470  -33.8490   53.3210 C.ar   29  PHE29      -0.0000
     28  N          9.8990   -9.5770   44.7540 N.3    58  LYS58      -0.1245
     29  CA         8.8710  -10.5080   45.2130 C.3    58  LYS58       0.1561
     30  C          9.1670  -11.9450   44.8090 C.2    58  LYS58       0.2260
     31  O          9.1040  -12.8470   45.6430 O.2    58  LYS58      -0.2867
     32  CB         7.4920  -10.1120   44.6780 C.3    58  LYS58       0.0271
     33  CG         6.3650  -10.9960   45.2000 C.3    58  LYS58       0.0035
     34  CD         5.0280  -10.6120   44.5870 C.3    58  LYS58       0.0206
     35  CE         3.8850  -11.4370   45.1630 C.3    58  LYS58       0.1093
     36  NZ         4.0190  -12.8950   44.8830 N.3    58  LYS58      -0.1314
     37  N          9.6360  -15.0160   47.2880 N.3    62  ASP62      -0.1239
     38  CA         8.7270  -16.1500   47.1900 C.3    62  ASP62       0.1674
     39  C          9.4920  -17.4540   47.0080 C.2    62  ASP62       0.2266
     40  O          9.1930  -18.4550   47.6600 O.2    62  ASP62      -0.2867
     41  CB         7.7450  -15.9810   46.0230 C.3    62  ASP62       0.1410
     42  CG         6.6720  -14.9350   46.2940 C.2    62  ASP62       0.3668
     43  OD1        6.4300  -14.6040   47.4710 O.co2  62  ASP62      -0.2456
     44  OD2        6.0550  -14.4570   45.3210 O.co2  62  ASP62      -0.2456
     45  N         11.5110  -18.8090   50.0440 N.3    65  LYS65      -0.1231
     46  CA        10.6810  -19.4680   51.0310 C.3    65  LYS65       0.1693
     47  C         10.1360  -20.8060   50.5160 C.2    65  LYS65       0.2592
     48  O         10.3750  -21.8490   51.1170 O.2    65  LYS65      -0.2718
     49  CB         9.5010  -18.5740   51.4360 C.3    65  LYS65       0.0285
     50  CG         8.5270  -19.2550   52.3900 C.3    65  LYS65       0.0035
     51  CD         7.3220  -18.3750   52.7010 C.3    65  LYS65       0.0206
     52  CE         6.3440  -19.1170   53.6000 C.3    65  LYS65       0.1093
     53  NZ         5.1340  -18.3040   53.9210 N.3    65  LYS65      -0.1314
     54  N          9.4460  -20.7710   49.3810 N.am   66  HIS66      -0.1976
     55  CA         8.7700  -21.9580   48.8540 C.3    66  HIS66       0.1656
     56  C          9.7000  -22.9280   48.1430 C.2    66  HIS66       0.2291
     57  O          9.3970  -24.1160   48.0560 O.2    66  HIS66      -0.2864
     58  CB         7.6300  -21.5300   47.9400 C.3    66  HIS66       0.0771
     59  CG         6.5590  -20.7760   48.6590 C.ar   66  HIS66       0.0820
     60  ND1        6.3610  -19.4190   48.5050 N.ar   66  HIS66      -0.2267
     61  CD2        5.6680  -21.1840   49.5910 C.ar   66  HIS66       0.1154
     62  CE1        5.3930  -19.0270   49.3150 C.ar   66  HIS66       0.1986
     63  NE2        4.9560  -20.0780   49.9860 N.ar   66  HIS66      -0.2212
     64  N          2.6950  -21.8230   41.9650 N.3   110  ARG110     -0.1245
     65  CA         1.2450  -22.0080   41.9070 C.3   110  ARG110      0.1563
     66  C          0.8540  -23.4330   42.2900 C.2   110  ARG110      0.2260
     67  O         -0.0660  -23.6420   43.0820 O.2   110  ARG110     -0.2867
     68  CB         0.7250  -21.7000   40.4980 C.3   110  ARG110      0.0307
     69  CG        -0.7850  -21.8450   40.3380 C.3   110  ARG110      0.0489
     70  CD        -1.2460  -21.3760   38.9640 C.3   110  ARG110      0.2205
     71  NE        -1.0900  -22.3920   37.9230 N.pl3 110  ARG110     -0.0865
     72  CZ        -1.8560  -23.4740   37.8140 C.cat 110  ARG110      0.5346
     73  NH1       -2.8360  -23.6890   38.6840 N.pl3 110  ARG110      0.1354
     74  NH2       -1.6550  -24.3360   36.8240 N.pl3 110  ARG110      0.1354
     75  N          2.6020  -25.5920   44.0240 N.3   112  LYS112     -0.1231
     76  CA         2.9400  -25.8200   45.4220 C.3   112  LYS112      0.1693
     77  C          1.8380  -25.2700   46.3350 C.2   112  LYS112      0.2592
     78  O          1.4450  -25.9020   47.3150 O.2   112  LYS112     -0.2718
     79  CB         4.2790  -25.1370   45.7350 C.3   112  LYS112      0.0285
     80  CG         4.9210  -25.5010   47.0680 C.3   112  LYS112      0.0035
     81  CD         4.6550  -24.4700   48.1410 C.3   112  LYS112      0.0206
     82  CE         5.6410  -24.6420   49.2920 C.3   112  LYS112      0.1093
     83  NZ         5.3360  -23.7590   50.4530 N.3   112  LYS112     -0.1314
     84  N          1.3310  -24.0950   45.9770 N.am  113  ASP113     -0.1960
     85  CA         0.2970  -23.4200   46.7510 C.3   113  ASP113      0.1840
     86  C         -1.0210  -24.1890   46.7320 C.2   113  ASP113      0.2622
     87  O         -1.8930  -23.9630   47.5710 O.2   113  ASP113     -0.2715
     88  CB         0.0850  -22.0150   46.1930 C.3   113  ASP113      0.1450
     89  CG        -0.7850  -21.1650   47.0850 C.2   113  ASP113      0.3671
     90  OD1       -0.4180  -20.9850   48.2620 O.co2 113  ASP113     -0.2456
     91  OD2       -1.8300  -20.6770   46.6090 O.co2 113  ASP113     -0.2456
     92  N         -1.1670  -25.0920   45.7700 N.am  114  LYS114     -0.1963
     93  CA        -2.3810  -25.8890   45.6540 C.3   114  LYS114      0.1728
     94  C         -2.4720  -26.9380   46.7500 C.2   114  LYS114      0.2616
     95  O         -3.5480  -27.4820   47.0060 O.2   114  LYS114     -0.2715
     96  CB        -2.4210  -26.6210   44.3080 C.3   114  LYS114      0.0311
     97  CG        -2.9320  -25.8120   43.1330 C.3   114  LYS114      0.0038
     98  CD        -2.8330  -26.6200   41.8360 C.3   114  LYS114      0.0206
     99  CE        -3.5480  -27.9700   41.9310 C.3   114  LYS114      0.1093
    100  NZ        -5.0300  -27.8570   42.0750 N.3   114  LYS114     -0.1314
    101  N         -1.3510  -27.2240   47.4050 N.am  115  PHE115     -0.1960
    102  CA        -1.3510  -28.2780   48.3930 C.3   115  PHE115      0.1771
    103  C         -0.8470  -27.8460   49.7550 C.2   115  PHE115      0.2619
    104  O         -0.1030  -26.8770   49.9150 O.2   115  PHE115     -0.2715
    105  CB        -0.4680  -29.4530   47.9430 C.3   115  PHE115      0.0574
    106  CG        -0.7850  -29.9660   46.5730 C.ar  115  PHE115     -0.0200
    107  CD1       -0.0060  -29.6010   45.4770 C.ar  115  PHE115     -0.0042
    108  CD2       -1.8800  -30.7940   46.3710 C.ar  115  PHE115     -0.0042
    109  CE1       -0.3200  -30.0580   44.1900 C.ar  115  PHE115     -0.0003
    110  CE2       -2.2060  -31.2560   45.0980 C.ar  115  PHE115     -0.0003
    111  CZ        -1.4290  -30.8900   44.0050 C.ar  115  PHE115     -0.0000
    112  N         -1.3180  -28.5970   50.7400 N.am  116  ASP116     -0.1971
    113  CA        -0.8670  -28.5310   52.1050 C.3   116  ASP116      0.1709
    114  C         -0.7760  -29.9600   52.5880 C.2   116  ASP116      0.2293
    115  O         -1.6160  -30.4330   53.3510 O.2   116  ASP116     -0.2864
    116  CB        -1.8230  -27.7320   52.9990 C.3   116  ASP116      0.1436
    117  CG        -1.2410  -27.4730   54.3820 C.2   116  ASP116      0.3671
    118  OD1       -0.2310  -28.1250   54.7430 O.co2 116  ASP116     -0.2456
    119  OD2       -1.7950  -26.6240   55.1160 O.co2 116  ASP116     -0.2456
    120  N          1.2370  -31.4980   54.4820 N.3   118  LEU118     -0.1245
    121  CA         1.4350  -31.7180   55.9000 C.3   118  LEU118      0.1561
    122  C          0.0880  -31.8100   56.6170 C.2   118  LEU118      0.2260
    123  O         -0.1220  -32.6820   57.4600 O.2   118  LEU118     -0.2867
    124  CB         2.2830  -30.5940   56.5040 C.3   118  LEU118      0.0270
    125  CG         2.6690  -30.8200   57.9650 C.3   118  LEU118      0.0019
    126  CD1        3.4540  -32.1180   58.1060 C.3   118  LEU118      0.0001
    127  CD2        3.4990  -29.6460   58.4520 C.3   118  LEU118      0.0001
@<TRIPOS>BOND
     1    74    72    1
     2    72    71    2
     3    72    73    1
     4    71    70    1
     5    70    69    1
     6    69    68    1
     7    68    65    1
     8    98    99    1
     9    98    97    1
    10    65    64    1
    11    65    66    1
    12    99   100    1
    13    66    67    2
    14    97    96    1
    15   111   109   ar
    16   111   110   ar
    17    75    76    1
    18   109   107   ar
    19    96    93    1
    20    34    35    1
    21    34    33    1
    22    32    33    1
    23    32    29    1
    24    28    29    1
    25    30    29    1
    26    30    31    2
    27    36    35    1
    28   110   108   ar
    29    44    42   ar
    30    76    79    1
    31    76    77    1
    32   107   106   ar
    33    93    92    1
    34    93    94    1
    35    79    80    1
    36    92    86   am
    37    84    77   am
    38    84    85    1
    39    41    42    1
    40    41    38    1
    41    88    85    1
    42    88    89    1
    43    42    43   ar
    44    77    78    2
    45   108   106   ar
    46   106   105    1
    47    91    89   ar
    48    86    85    1
    49    86    87    2
    50    94    95    2
    51    94   101   am
    52    39    38    1
    53    39    40    2
    54    80    81    1
    55    89    90   ar
    56    38    37    1
    57   101   102    1
    58    58    59    1
    59    58    55    1
    60   105   102    1
    61    57    56    2
    62    81    82    1
    63    56    55    1
    64   102   103    1
    65    60    59   ar
    66    60    62   ar
    67    59    61   ar
    68    55    54    1
    69    82    83    1
    70    62    63   ar
    71    54    47   am
    72    61    63   ar
    73   103   104    2
    74   103   112   am
    75    45    46    1
    76    47    46    1
    77    47    48    2
    78   112   113    1
    79    46    49    1
    80    49    50    1
    81    19    20    2
    82    19    18    1
    83    21    22    1
    84    21    18    1
    85    24    22   ar
    86    24    26   ar
    87   113   114    1
    88   113   116    1
    89    22    23   ar
    90    26    27   ar
    91    18    17    1
    92    50    51    1
    93   114   115    2
    94    51    52    1
    95   116   117    1
    96    23    25   ar
    97    27    25   ar
    98    52    53    1
    99    17    11   am
   100    12    11    2
   101   117   118   ar
   102   117   119   ar
   103   120   121    1
   104    11    10    1
   105    15    14    2
   106    16    14   am
   107    14    13    1
   108    13    10    1
   109    10     9    1
   110   121   124    1
   111   121   122    1
   112   124   125    1
   113   122   123    2
   114     9     3   am
   115   125   126    1
   116   125   127    1
   117     3     4    2
   118     3     2    1
   119     1     2    1
   120     2     5    1
   121     5     6    1
   122     6     7    2
   123     6     8   am
