@<TRIPOS>MOLECULE
tmp/1iooB00.pdb
 118 115 0 0 0
SMALL
GASTEIGER

@<TRIPOS>ATOM
      1  N         40.7080  -41.8370   39.8830 N.3    27  ASN27      -0.1225
      2  CA        41.3920  -42.7620   40.7820 C.3    27  ASN27       0.1785
      3  C         42.5400  -42.0710   41.5010 C.2    27  ASN27       0.2597
      4  O         43.5460  -42.6890   41.8360 O.2    27  ASN27      -0.2718
      5  CB        41.9280  -43.9560   39.9870 C.3    27  ASN27       0.1169
      6  CG        40.8760  -44.5690   39.0930 C.2    27  ASN27       0.2627
      7  OD1       40.6380  -44.0970   37.9780 O.2    27  ASN27      -0.2716
      8  ND2       40.2220  -45.6160   39.5840 N.am   27  ASN27      -0.0877
      9  N         42.3760  -40.7750   41.7350 N.am   28  ASN28      -0.1960
     10  CA        43.3850  -39.9780   42.4040 C.3    28  ASN28       0.1819
     11  C         42.7270  -38.8230   43.1310 C.2    28  ASN28       0.2621
     12  O         41.5740  -38.4950   42.8570 O.2    28  ASN28      -0.2715
     13  CB        44.3560  -39.4350   41.3610 C.3    28  ASN28       0.1195
     14  CG        45.7220  -39.0960   41.9190 C.2    28  ASN28       0.2630
     15  OD1       46.0010  -39.1980   43.1160 O.2    28  ASN28      -0.2716
     16  ND2       46.5790  -38.6780   40.9940 N.am   28  ASN28      -0.0877
     17  N         43.4490  -38.2180   44.0650 N.am   29  PHE29      -0.1974
     18  CA        42.9120  -37.0840   44.7980 C.3    29  PHE29       0.1639
     19  C         42.6630  -35.9060   43.8670 C.2    29  PHE29       0.2290
     20  O         43.4050  -35.6910   42.9080 O.2    29  PHE29      -0.2864
     21  CB        43.8740  -36.6490   45.9100 C.3    29  PHE29       0.0560
     22  CG        43.9950  -37.6430   47.0340 C.ar   29  PHE29      -0.0200
     23  CD1       44.9410  -38.6630   46.9860 C.ar   29  PHE29      -0.0042
     24  CD2       43.1300  -37.5820   48.1210 C.ar   29  PHE29      -0.0042
     25  CE1       45.0140  -39.6110   48.0110 C.ar   29  PHE29      -0.0003
     26  CE2       43.1970  -38.5220   49.1430 C.ar   29  PHE29      -0.0003
     27  CZ        44.1400  -39.5380   49.0870 C.ar   29  PHE29      -0.0000
     28  N         42.4650  -27.2090   32.9600 N.3    62  ASP62      -0.1239
     29  CA        43.2160  -27.6590   34.1340 C.3    62  ASP62       0.1674
     30  C         42.2920  -27.8750   35.3350 C.2    62  ASP62       0.2266
     31  O         42.4140  -28.8710   36.0510 O.2    62  ASP62      -0.2867
     32  CB        44.3170  -26.6590   34.5170 C.3    62  ASP62       0.1410
     33  CG        45.4310  -26.5740   33.4830 C.2    62  ASP62       0.3668
     34  OD1       45.5700  -27.5000   32.6550 O.co2  62  ASP62      -0.2456
     35  OD2       46.1820  -25.5800   33.5140 O.co2  62  ASP62      -0.2456
     36  N         39.9850  -30.9540   35.2450 N.3    65  LYS65      -0.1231
     37  CA        40.6700  -32.1860   35.5960 C.3    65  LYS65       0.1693
     38  C         41.0470  -32.2310   37.0820 C.2    65  LYS65       0.2592
     39  O         40.6030  -33.1150   37.8190 O.2    65  LYS65      -0.2718
     40  CB        41.9450  -32.3490   34.7690 C.3    65  LYS65       0.0285
     41  CG        42.7920  -33.5450   35.2030 C.3    65  LYS65       0.0035
     42  CD        44.0360  -33.6900   34.3440 C.3    65  LYS65       0.0206
     43  CE        44.8850  -34.8670   34.7910 C.3    65  LYS65       0.1093
     44  NZ        46.0660  -35.0470   33.8960 N.3    65  LYS65      -0.1314
     45  N         41.8430  -31.2590   37.5140 N.am   66  HIS66      -0.1976
     46  CA        42.3850  -31.2380   38.8790 C.3    66  HIS66       0.1656
     47  C         41.3660  -30.8240   39.9430 C.2    66  HIS66       0.2291
     48  O         41.5090  -31.2000   41.1050 O.2    66  HIS66      -0.2864
     49  CB        43.6190  -30.3380   38.9270 C.3    66  HIS66       0.0771
     50  CG        44.7710  -30.8670   38.1340 C.ar   66  HIS66       0.0820
     51  ND1       45.1960  -30.2960   36.9530 N.ar   66  HIS66      -0.2267
     52  CD2       45.5700  -31.9390   38.3420 C.ar   66  HIS66       0.1154
     53  CE1       46.2080  -30.9940   36.4690 C.ar   66  HIS66       0.1986
     54  NE2       46.4550  -31.9960   37.2940 N.ar   66  HIS66      -0.2212
     55  N         48.7630  -25.3280   41.8310 N.3   110  ARG110     -0.1245
     56  CA        50.1780  -25.4480   42.1810 C.3   110  ARG110      0.1563
     57  C         50.3740  -26.2830   43.4480 C.2   110  ARG110      0.2260
     58  O         51.2330  -27.1660   43.4880 O.2   110  ARG110     -0.2867
     59  CB        50.8010  -24.0590   42.3770 C.3   110  ARG110      0.0307
     60  CG        52.1520  -24.0670   43.0800 C.3   110  ARG110      0.0489
     61  CD        52.5200  -22.6710   43.5650 C.3   110  ARG110      0.2205
     62  NE        53.3250  -22.7240   44.7820 N.pl3 110  ARG110     -0.0865
     63  CZ        53.6240  -21.6670   45.5290 C.cat 110  ARG110      0.5346
     64  NH1       53.1840  -20.4640   45.1850 N.pl3 110  ARG110      0.1354
     65  NH2       54.3650  -21.8130   46.6210 N.pl3 110  ARG110      0.1354
     66  N         48.3450  -28.4850   44.7030 N.3   112  LYS112     -0.1231
     67  CA        47.9700  -29.8660   44.4300 C.3   112  LYS112      0.1693
     68  C         49.1280  -30.5910   43.7670 C.2   112  LYS112      0.2592
     69  O         49.3370  -31.7850   43.9830 O.2   112  LYS112     -0.2718
     70  CB        46.7490  -29.9460   43.5050 C.3   112  LYS112      0.0285
     71  CG        46.4370  -31.3730   43.0300 C.3   112  LYS112      0.0035
     72  CD        45.2660  -31.4040   42.0570 C.3   112  LYS112      0.0206
     73  CE        44.8430  -32.8340   41.7160 C.3   112  LYS112      0.1093
     74  NZ        45.7540  -33.5460   40.7620 N.3   112  LYS112     -0.1314
     75  N         49.8950  -29.8500   42.9740 N.am  113  ASP113     -0.1960
     76  CA        51.0330  -30.4190   42.2600 C.3   113  ASP113      0.1840
     77  C         52.2810  -30.4670   43.1340 C.2   113  ASP113      0.2622
     78  O         53.3860  -30.7170   42.6480 O.2   113  ASP113     -0.2715
     79  CB        51.3090  -29.6200   40.9890 C.3   113  ASP113      0.1450
     80  CG        52.1200  -30.4080   39.9820 C.2   113  ASP113      0.3671
     81  OD1       51.9230  -31.6390   39.9200 O.co2 113  ASP113     -0.2456
     82  OD2       52.9330  -29.8050   39.2500 O.co2 113  ASP113     -0.2456
     83  N         52.1050  -30.2080   44.4230 N.am  114  LYS114     -0.1963
     84  CA        53.2090  -30.2720   45.3600 C.3   114  LYS114      0.1728
     85  C         53.2480  -31.6430   46.0190 C.2   114  LYS114      0.2616
     86  O         54.2560  -32.0380   46.6140 O.2   114  LYS114     -0.2715
     87  CB        53.0410  -29.1870   46.4300 C.3   114  LYS114      0.0311
     88  CG        54.2050  -29.0370   47.3900 C.3   114  LYS114      0.0038
     89  CD        53.9530  -27.8950   48.3680 C.3   114  LYS114      0.0206
     90  CE        55.1600  -27.6480   49.2570 C.3   114  LYS114      0.1093
     91  NZ        56.3330  -27.1710   48.4720 N.3   114  LYS114     -0.1314
     92  N         52.1550  -32.3860   45.8730 N.am  115  PHE115     -0.1960
     93  CA        52.0600  -33.6860   46.5090 C.3   115  PHE115      0.1771
     94  C         51.5400  -34.7690   45.5860 C.2   115  PHE115      0.2619
     95  O         50.9540  -34.5210   44.5330 O.2   115  PHE115     -0.2715
     96  CB        51.0930  -33.6520   47.6970 C.3   115  PHE115      0.0574
     97  CG        51.3310  -32.5350   48.6490 C.ar  115  PHE115     -0.0200
     98  CD1       50.5760  -31.3700   48.5710 C.ar  115  PHE115     -0.0042
     99  CD2       52.3120  -32.6390   49.6260 C.ar  115  PHE115     -0.0042
    100  CE1       50.7940  -30.3280   49.4560 C.ar  115  PHE115     -0.0003
    101  CE2       52.5380  -31.6010   50.5140 C.ar  115  PHE115     -0.0003
    102  CZ        51.7760  -30.4410   50.4300 C.ar  115  PHE115     -0.0000
    103  N         51.7860  -35.9920   46.0310 N.am  116  ASP116     -0.1971
    104  CA        51.2820  -37.2010   45.4310 C.3   116  ASP116      0.1709
    105  C         50.9050  -38.1250   46.5670 C.2   116  ASP116      0.2293
    106  O         51.5480  -39.1450   46.8050 O.2   116  ASP116     -0.2864
    107  CB        52.3250  -37.8710   44.5340 C.3   116  ASP116      0.1436
    108  CG        51.7540  -39.0550   43.7710 C.2   116  ASP116      0.3671
    109  OD1       50.6080  -39.4600   44.0700 O.co2 116  ASP116     -0.2456
    110  OD2       52.4490  -39.5880   42.8800 O.co2 116  ASP116     -0.2456
    111  N         48.6270  -40.1680   47.1030 N.3   118  LEU118     -0.1245
    112  CA        48.3370  -41.5610   46.8170 C.3   118  LEU118      0.1561
    113  C         49.6180  -42.3870   46.8460 C.2   118  LEU118      0.2260
    114  O         49.6570  -43.4680   47.4340 O.2   118  LEU118     -0.2867
    115  CB        47.6280  -41.6980   45.4680 C.3   118  LEU118      0.0270
    116  CG        47.0610  -43.0840   45.1480 C.3   118  LEU118      0.0019
    117  CD1       45.9910  -43.4730   46.1760 C.3   118  LEU118      0.0001
    118  CD2       46.4760  -43.0600   43.7400 C.3   118  LEU118      0.0001
@<TRIPOS>BOND
     1    34    33   ar
     2    28    29    1
     3    33    35   ar
     4    33    32    1
     5    44    43    1
     6    29    32    1
     7    29    30    1
     8    42    43    1
     9    42    41    1
    10    40    41    1
    11    40    37    1
    12    36    37    1
    13    30    31    2
    14    37    38    1
    15    53    51   ar
    16    53    54   ar
    17    51    50   ar
    18    38    45   am
    19    38    39    2
    20    54    52   ar
    21    45    46    1
    22     7     6    2
    23    50    52   ar
    24    50    49    1
    25    46    49    1
    26    46    47    1
    27     6     8   am
    28     6     5    1
    29    82    80   ar
    30     1     2    1
    31    81    80   ar
    32    47    48    2
    33    80    79    1
    34     5     2    1
    35    74    73    1
    36     2     3    1
    37    79    76    1
    38    16    14   am
    39    13    14    1
    40    13    10    1
    41     3     9   am
    42     3     4    2
    43    73    72    1
    44     9    10    1
    45    55    56    1
    46    14    15    2
    47    72    71    1
    48    56    59    1
    49    56    57    1
    50    76    75    1
    51    76    77    1
    52    59    60    1
    53    10    11    1
    54    78    77    2
    55    12    11    2
    56   110   108   ar
    57    20    19    2
    58    75    68   am
    59    71    70    1
    60    60    61    1
    61    11    17   am
    62    77    83   am
    63    57    58    2
    64    70    67    1
    65    61    62    1
    66   118   116    1
    67    68    69    2
    68    68    67    1
    69   108   109   ar
    70   108   107    1
    71    19    18    1
    72    17    18    1
    73    83    84    1
    74    67    66    1
    75    95    94    2
    76   107   104    1
    77    62    63    2
    78    18    21    1
    79   116   115    1
    80   116   117    1
    81    64    63    1
    82    84    85    1
    83    84    87    1
    84   104   103    1
    85   104   105    1
    86   115   112    1
    87    63    65    1
    88    94   103   am
    89    94    93    1
    90    92    85   am
    91    92    93    1
    92    21    22    1
    93    85    86    2
    94    87    88    1
    95    93    96    1
    96   105   106    2
    97   112   113    1
    98   112   111    1
    99   113   114    2
   100    23    22   ar
   101    23    25   ar
   102    22    24   ar
   103    88    89    1
   104    96    97    1
   105    25    27   ar
   106    24    26   ar
   107    89    90    1
   108    91    90    1
   109    98    97   ar
   110    98   100   ar
   111    97    99   ar
   112    27    26   ar
   113   100   102   ar
   114    99   101   ar
   115   102   101   ar
