@<TRIPOS>MOLECULE
tmp/1iopA00.pdb
 182 173 0 0 0
SMALL
GASTEIGER

@<TRIPOS>ATOM
      1  N         29.5290   14.6060    0.3970 N.3    32  LEU32      -0.1245
      2  CA        28.1040   14.8160    0.6320 C.3    32  LEU32       0.1561
      3  C         27.3200   14.9280   -0.6760 C.2    32  LEU32       0.2260
      4  O         26.3050   14.2610   -0.8590 O.2    32  LEU32      -0.2867
      5  CB        27.9070   16.0960    1.4430 C.3    32  LEU32       0.0270
      6  CG        26.4700   16.5110    1.7230 C.3    32  LEU32       0.0019
      7  CD1       25.8550   15.5680    2.7350 C.3    32  LEU32       0.0001
      8  CD2       26.4380   17.9380    2.2300 C.3    32  LEU32       0.0001
      9  N         21.2040   17.0340   -1.8890 N.3    39  THR39      -0.1218
     10  CA        21.6530   18.1180   -1.0220 C.3    39  THR39       0.1862
     11  C         22.2700   19.2470   -1.8480 C.2    39  THR39       0.2287
     12  O         22.2290   20.4080   -1.4480 O.2    39  THR39      -0.2866
     13  CB        22.6900   17.6380    0.0050 C.3    39  THR39       0.1770
     14  OG1       23.7500   16.9550   -0.6750 O.3    39  THR39      -0.2211
     15  CG2       22.0460   16.7070    1.0110 C.3    39  THR39       0.0375
     16  N         20.1250   22.1930   -2.9460 N.3    42  LYS42      -0.1231
     17  CA        19.8620   23.2060   -1.9260 C.3    42  LYS42       0.1693
     18  C         20.7700   24.4410   -2.0510 C.2    42  LYS42       0.2592
     19  O         20.4490   25.5140   -1.5210 O.2    42  LYS42      -0.2718
     20  CB        20.0120   22.6010   -0.5270 C.3    42  LYS42       0.0285
     21  CG        18.8580   21.7070   -0.1170 C.3    42  LYS42       0.0035
     22  CD        17.6550   22.5820    0.1460 C.3    42  LYS42       0.0206
     23  CE        16.3990   21.8100    0.4800 C.3    42  LYS42       0.1093
     24  NZ        15.2920   22.7740    0.7670 N.3    42  LYS42      -0.1314
     25  N         21.8890   24.3080   -2.7610 N.am   43  PHE43      -0.1962
     26  CA        22.8290   25.4200   -2.9270 C.3    43  PHE43       0.1771
     27  C         22.6950   26.0570   -4.2870 C.2    43  PHE43       0.2620
     28  O         23.2720   25.5780   -5.2640 O.2    43  PHE43      -0.2715
     29  CB        24.2790   24.9460   -2.7580 C.3    43  PHE43       0.0574
     30  CG        24.5770   24.3710   -1.4130 C.ar   43  PHE43      -0.0200
     31  CD1       24.2030   23.0670   -1.1020 C.ar   43  PHE43      -0.0042
     32  CD2       25.2440   25.1230   -0.4580 C.ar   43  PHE43      -0.0042
     33  CE1       24.4890   22.5230    0.1370 C.ar   43  PHE43      -0.0003
     34  CE2       25.5370   24.5840    0.7890 C.ar   43  PHE43      -0.0003
     35  CZ        25.1590   23.2810    1.0870 C.ar   43  PHE43      -0.0000
     36  N         21.9830   27.1740   -4.3410 N.am   44  ASP44      -0.1957
     37  CA        21.7940   27.8880   -5.5960 C.3    44  ASP44       0.1840
     38  C         23.1290   28.1290   -6.3040 C.2    44  ASP44       0.2621
     39  O         23.2830   27.8190   -7.4850 O.2    44  ASP44      -0.2715
     40  CB        21.0970   29.2290   -5.3470 C.3    44  ASP44       0.1450
     41  CG        19.7080   29.0680   -4.7500 C.2    44  ASP44       0.3671
     42  OD1       19.0050   28.0790   -5.1010 O.co2  44  ASP44      -0.2456
     43  OD2       19.3190   29.9410   -3.9260 O.co2  44  ASP44      -0.2456
     44  N         24.1160   28.6130   -5.5590 N.am   45  ARG45      -0.1977
     45  CA        25.4120   28.9050   -6.1510 C.3    45  ARG45       0.1597
     46  C         26.2400   27.7140   -6.6290 C.2    45  ARG45       0.2287
     47  O         27.1440   27.8880   -7.4510 O.2    45  ARG45      -0.2864
     48  CB        26.2440   29.7980   -5.2170 C.3    45  ARG45       0.0334
     49  CG        26.5000   29.2400   -3.8250 C.3    45  ARG45       0.0492
     50  CD        27.2710   30.2550   -2.9700 C.3    45  ARG45       0.2205
     51  NE        27.6230   29.7400   -1.6390 N.pl3  45  ARG45      -0.0865
     52  CZ        26.7460   29.4960   -0.6680 C.cat  45  ARG45       0.5346
     53  NH1       25.4510   29.6990   -0.8700 N.pl3  45  ARG45       0.1354
     54  NH2       27.1610   29.0300    0.5030 N.pl3  45  ARG45       0.1354
     55  N         33.3780   28.1250    1.0320 N.3    64  HIS64      -0.1241
     56  CA        32.2240   27.6570    1.7970 C.3    64  HIS64       0.1621
     57  C         32.5990   26.5630    2.7840 C.2    64  HIS64       0.2264
     58  O         32.1580   26.5830    3.9300 O.2    64  HIS64      -0.2867
     59  CB        31.1150   27.1540    0.8750 C.3    64  HIS64       0.0745
     60  CG        29.8700   26.7690    1.6080 C.ar   64  HIS64       0.0817
     61  ND1       29.1090   27.6490    2.3490 N.ar   64  HIS64      -0.2268
     62  CD2       29.2780   25.5560    1.7570 C.ar   64  HIS64       0.1154
     63  CE1       28.1170   26.9540    2.9080 C.ar   64  HIS64       0.1986
     64  NE2       28.1850   25.6820    2.5720 N.ar   64  HIS64      -0.2212
     65  N         34.0650   27.9920    5.8230 N.3    67  THR67      -0.1203
     66  CA        33.0390   28.6050    6.6520 C.3    67  THR67       0.1994
     67  C         32.2730   27.5520    7.4610 C.2    67  THR67       0.2617
     68  O         32.0040   27.7370    8.6490 O.2    67  THR67      -0.2717
     69  CB        32.0530   29.3990    5.7710 C.3    67  THR67       0.1784
     70  OG1       32.7730   30.4020    5.0390 O.3    67  THR67      -0.2211
     71  CG2       30.9790   30.0630    6.6210 C.3    67  THR67       0.0376
     72  N         31.9580   26.4310    6.8220 N.am   68  VAL68      -0.1979
     73  CA        31.2200   25.3670    7.4900 C.3    68  VAL68       0.1595
     74  C         32.0460   24.7350    8.5950 C.2    68  VAL68       0.2287
     75  O         31.6110   24.6820    9.7430 O.2    68  VAL68      -0.2864
     76  CB        30.7370   24.2750    6.4910 C.3    68  VAL68       0.0276
     77  CG1       29.9310   23.1980    7.2150 C.3    68  VAL68       0.0022
     78  CG2       29.8840   24.9120    5.4190 C.3    68  VAL68       0.0022
     79  N         32.6550   26.9720   11.6370 N.3    71  ALA71      -0.1231
     80  CA        31.4820   27.0310   12.5050 C.3    71  ALA71       0.1694
     81  C         31.3420   25.7550   13.3350 C.2    71  ALA71       0.2591
     82  O         31.0950   25.8100   14.5380 O.2    71  ALA71      -0.2718
     83  CB        30.2380   27.2460   11.6760 C.3    71  ALA71       0.0304
     84  N         31.5130   24.6060   12.6880 N.am   72  LEU72      -0.1980
     85  CA        31.4110   23.3140   13.3640 C.3    72  LEU72       0.1596
     86  C         32.4870   23.1400   14.4390 C.2    72  LEU72       0.2287
     87  O         32.2120   22.6470   15.5210 O.2    72  LEU72      -0.2864
     88  CB        31.4740   22.1700   12.3420 C.3    72  LEU72       0.0297
     89  CG        31.3300   20.7500   12.8950 C.3    72  LEU72       0.0022
     90  CD1       30.0320   20.6200   13.6860 C.3    72  LEU72       0.0001
     91  CD2       31.3910   19.7430   11.7610 C.3    72  LEU72       0.0001
     92  N         31.7090   25.0470   17.5220 N.3    75  ILE75      -0.1245
     93  CA        30.6390   24.3740   18.2580 C.3    75  ILE75       0.1561
     94  C         31.2160   23.2220   19.0840 C.2    75  ILE75       0.2260
     95  O         30.9510   23.1110   20.2790 O.2    75  ILE75      -0.2867
     96  CB        29.5330   23.8480   17.2820 C.3    75  ILE75       0.0252
     97  CG1       28.6410   25.0070   16.8220 C.3    75  ILE75       0.0019
     98  CG2       28.6910   22.7660   17.9340 C.3    75  ILE75       0.0019
     99  CD1       27.6880   24.6520   15.6890 C.3    75  ILE75       0.0001
    100  N         22.4600   29.4060   13.6420 N.3    89  LEU89      -0.1245
    101  CA        22.6100   28.2720   12.7430 C.3    89  LEU89       0.1561
    102  C         21.2800   27.5730   12.4800 C.2    89  LEU89       0.2260
    103  O         20.9390   27.2810   11.3310 O.2    89  LEU89      -0.2867
    104  CB        23.6320   27.2940   13.3170 C.3    89  LEU89       0.0270
    105  CG        24.1850   26.2980   12.2990 C.3    89  LEU89       0.0019
    106  CD1       25.0390   27.0770   11.2970 C.3    89  LEU89       0.0001
    107  CD2       24.9960   25.1970   13.0000 C.3    89  LEU89       0.0001
    108  N         19.2070   27.6550    8.7020 N.3    93  HIS93      -0.1241
    109  CA        18.9950   26.3560    8.0750 C.3    93  HIS93       0.1621
    110  C         17.5560   25.8960    8.0490 C.2    93  HIS93       0.2264
    111  O         17.1290   25.2440    7.1100 O.2    93  HIS93      -0.2867
    112  CB        19.9290   25.3060    8.6680 C.3    93  HIS93       0.0745
    113  CG        21.3470   25.4800    8.2290 C.ar   93  HIS93       0.0817
    114  ND1       22.1540   26.5150    8.6370 N.ar   93  HIS93      -0.2268
    115  CD2       22.0790   24.7780    7.3280 C.ar   93  HIS93       0.1154
    116  CE1       23.3130   26.4200    7.9780 C.ar   93  HIS93       0.1986
    117  NE2       23.3160   25.3780    7.1730 N.ar   93  HIS93      -0.2212
    118  N         17.0820   28.2770    4.5060 N.3    97  HIS97      -0.1241
    119  CA        17.4170   27.1990    3.5730 C.3    97  HIS97       0.1621
    120  C         16.5210   25.9630    3.5890 C.2    97  HIS97       0.2264
    121  O         16.5060   25.2080    2.6230 O.2    97  HIS97      -0.2867
    122  CB        18.8920   26.8260    3.7380 C.3    97  HIS97       0.0745
    123  CG        19.8070   28.0120    3.7330 C.ar   97  HIS97       0.0817
    124  ND1       19.9380   28.8850    2.6700 N.ar   97  HIS97      -0.2268
    125  CD2       20.5990   28.5120    4.7160 C.ar   97  HIS97       0.1154
    126  CE1       20.7780   29.8700    3.0350 C.ar   97  HIS97       0.1986
    127  NE2       21.2100   29.6910    4.2690 N.ar   97  HIS97      -0.2212
    128  N         16.4830   23.0870    5.6490 N.3    99  ILE99      -0.1245
    129  CA        17.3080   21.8940    5.6460 C.3    99  ILE99       0.1561
    130  C         16.7740   20.8530    6.6160 C.2    99  ILE99       0.2260
    131  O         16.8880   20.9890    7.8390 O.2    99  ILE99      -0.2867
    132  CB        18.7770   22.2220    5.9860 C.3    99  ILE99       0.0252
    133  CG1       19.3340   23.2470    4.9910 C.3    99  ILE99       0.0019
    134  CG2       19.6130   20.9640    6.0000 C.3    99  ILE99       0.0019
    135  CD1       19.2050   22.8560    3.5350 C.3    99  ILE99       0.0001
    136  N         19.2300   15.7230    6.2080 N.3   103  TYR103     -0.1227
    137  CA        20.4340   16.1900    5.5090 C.3   103  TYR103      0.1736
    138  C         21.5990   16.4090    6.4760 C.2   103  TYR103      0.2595
    139  O         22.7660   16.3100    6.0940 O.2   103  TYR103     -0.2718
    140  CB        20.1560   17.4720    4.7260 C.3   103  TYR103      0.0548
    141  CG        19.2780   17.3010    3.5070 C.ar  103  TYR103     -0.0200
    142  CD1       18.5870   16.1130    3.2690 C.ar  103  TYR103     -0.0009
    143  CD2       19.1410   18.3320    2.5810 C.ar  103  TYR103     -0.0009
    144  CE1       17.7840   15.9580    2.1380 C.ar  103  TYR103      0.0417
    145  CE2       18.3440   18.1860    1.4510 C.ar  103  TYR103      0.0417
    146  CZ        17.6710   17.0000    1.2350 C.ar  103  TYR103      0.1957
    147  OH        16.8920   16.8570    0.1060 O.3   103  TYR103     -0.2866
    148  N         21.2820   16.7240    7.7280 N.am  104  LEU104     -0.1980
    149  CA        22.3070   16.9130    8.7380 C.3   104  LEU104      0.1596
    150  C         22.9020   15.5580    9.0990 C.2   104  LEU104      0.2287
    151  O         24.0450   15.4800    9.5260 O.2   104  LEU104     -0.2864
    152  CB        21.7350   17.5910    9.9760 C.3   104  LEU104      0.0297
    153  CG        21.3060   19.0440    9.7580 C.3   104  LEU104      0.0022
    154  CD1       20.7510   19.5950   11.0370 C.3   104  LEU104      0.0001
    155  CD2       22.4880   19.8730    9.3000 C.3   104  LEU104      0.0001
    156  N         25.4120   14.7860    6.2030 N.3   107  ILE107     -0.1245
    157  CA        26.7070   15.4480    6.3070 C.3   107  ILE107      0.1561
    158  C         27.5250   14.8600    7.4490 C.2   107  ILE107      0.2260
    159  O         28.7470   14.7950    7.3580 O.2   107  ILE107     -0.2867
    160  CB        26.6270   16.9910    6.4050 C.3   107  ILE107      0.0252
    161  CG1       27.9800   17.5730    5.9970 C.3   107  ILE107      0.0019
    162  CG2       26.2470   17.4480    7.8140 C.3   107  ILE107      0.0019
    163  CD1       28.0200   19.0720    5.9480 C.3   107  ILE107      0.0001
    164  N         31.3570   13.5830    7.1450 N.3   111  ILE111     -0.1245
    165  CA        32.4540   13.9670    8.0380 C.3   111  ILE111      0.1561
    166  C         33.1960   12.7240    8.5410 C.2   111  ILE111      0.2260
    167  O         34.4140   12.6180    8.3950 O.2   111  ILE111     -0.2867
    168  CB        31.9320   14.7790    9.2550 C.3   111  ILE111      0.0252
    169  CG1       31.3800   16.1270    8.7800 C.3   111  ILE111      0.0019
    170  CG2       33.0410   14.9610   10.3030 C.3   111  ILE111      0.0019
    171  CD1       30.6580   16.9120    9.8460 C.3   111  ILE111      0.0001
    172  N         24.7930   17.4050   18.5670 N.3   138  PHE138     -0.1241
    173  CA        24.5920   18.5570   17.7000 C.3   138  PHE138      0.1605
    174  C         23.2480   18.4440   16.9990 C.2   138  PHE138      0.2264
    175  O         22.4340   19.3620   17.0760 O.2   138  PHE138     -0.2867
    176  CB        25.7400   18.6470   16.6700 C.3   138  PHE138      0.0534
    177  CG        25.4360   19.5140   15.4530 C.ar  138  PHE138     -0.0203
    178  CD1       25.4200   20.9080   15.5450 C.ar  138  PHE138     -0.0042
    179  CD2       25.1740   18.9290   14.2160 C.ar  138  PHE138     -0.0042
    180  CE1       25.1460   21.7000   14.4240 C.ar  138  PHE138     -0.0003
    181  CE2       24.8990   19.7090   13.0940 C.ar  138  PHE138     -0.0003
    182  CZ        24.8840   21.1000   13.1980 C.ar  138  PHE138     -0.0000
@<TRIPOS>BOND
     1    39    38    2
     2    47    46    2
     3    46    45    1
     4    38    37    1
     5    38    44   am
     6    45    44    1
     7    45    48    1
     8    37    40    1
     9    37    36    1
    10    40    41    1
    11    28    27    2
    12    48    49    1
    13    42    41   ar
    14    41    43   ar
    15    36    27   am
    16    27    26    1
    17    49    50    1
    18    50    51    1
    19    16    17    1
    20    26    25    1
    21    26    29    1
    22    25    18   am
    23    29    30    1
    24    18    17    1
    25    18    19    2
    26    17    20    1
    27     9    10    1
    28    11    12    2
    29    11    10    1
    30    51    52    2
    31    30    31   ar
    32    30    32   ar
    33    31    33   ar
    34    10    13    1
    35    53    52    1
    36     4     3    2
    37     3     2    1
    38    14    13    1
    39    52    54    1
    40    20    21    1
    41    32    34   ar
    42    21    22    1
    43    13    15    1
    44   147   146    1
    45    33    35   ar
    46    22    23    1
    47     1     2    1
    48    23    24    1
    49     2     5    1
    50    34    35   ar
    51    59    60    1
    52    59    56    1
    53    55    56    1
    54   146   145   ar
    55   146   144   ar
    56     5     6    1
    57   145   143   ar
    58    60    62   ar
    59    60    61   ar
    60     6     8    1
    61     6     7    1
    62    62    64   ar
    63    56    57    1
    64   144   142   ar
    65    61    63   ar
    66    64    63   ar
    67   143   141   ar
    68   121   120    2
    69   124   126   ar
    70   124   123   ar
    71    57    58    2
    72   126   127   ar
    73   142   141   ar
    74   141   140    1
    75   135   133    1
    76   119   120    1
    77   119   122    1
    78   119   118    1
    79   123   122    1
    80   123   125   ar
    81   127   125   ar
    82   140   137    1
    83   133   132    1
    84    70    69    1
    85    78    76    1
    86   137   136    1
    87   137   138    1
    88   129   128    1
    89   129   132    1
    90   129   130    1
    91    69    71    1
    92    69    66    1
    93    65    66    1
    94   163   161    1
    95   132   134    1
    96   161   160    1
    97   139   138    2
    98   156   157    1
    99   157   160    1
   100   157   158    1
   101   160   162    1
   102   138   148   am
   103    76    77    1
   104    76    73    1
   105   130   131    2
   106    66    67    1
   107    72    67   am
   108    72    73    1
   109   111   110    2
   110   164   165    1
   111   117   115   ar
   112   117   116   ar
   113   115   113   ar
   114   159   158    2
   115    67    68    2
   116    73    74    1
   117   148   149    1
   118   116   114   ar
   119   165   166    1
   120   165   168    1
   121   110   109    1
   122   109   112    1
   123   109   108    1
   124   113   114   ar
   125   113   112    1
   126   167   166    2
   127    74    75    2
   128   149   150    1
   129   149   152    1
   130   169   168    1
   131   169   171    1
   132   150   151    2
   133   168   170    1
   134   155   153    1
   135   153   152    1
   136   153   154    1
   137   106   105    1
   138   103   102    2
   139    79    80    1
   140    83    80    1
   141    91    89    1
   142   105   107    1
   143   105   104    1
   144    88    89    1
   145    88    85    1
   146   102   101    1
   147    80    81    1
   148    84    81   am
   149    84    85    1
   150   101   104    1
   151   101   100    1
   152    89    90    1
   153   181   182   ar
   154   181   179   ar
   155   182   180   ar
   156    81    82    2
   157    85    86    1
   158   179   177   ar
   159   180   178   ar
   160    86    87    2
   161   177   178   ar
   162   177   176    1
   163    99    97    1
   164   176   173    1
   165    97    96    1
   166   174   175    2
   167   174   173    1
   168    96    98    1
   169    96    93    1
   170    92    93    1
   171   173   172    1
   172    93    94    1
   173    94    95    2
