@<TRIPOS>MOLECULE
tmp/1iovA01.pdb
 162 154 0 0 0
SMALL
GASTEIGER

@<TRIPOS>ATOM
      1  N         19.7270    0.3140   52.7210 N.3    15  GLU15      -0.1196
      2  CA        19.8590    1.7520   52.6710 C.3    15  GLU15       0.1783
      3  C         19.9130    2.4570   54.0160 C.2    15  GLU15       0.2306
      4  O         19.9470    3.6980   54.0810 O.2    15  GLU15      -0.2863
      5  CB        18.7080    2.3850   51.8710 C.2    15  GLU15       0.0071
      6  CG        18.7340    2.2600   50.3630 C.2    15  GLU15       0.0834
      7  CD        17.6840    2.8930   49.5270 C.2    15  GLU15       0.3877
      8  OE1       17.9610    4.0820   49.2340 O.co2  15  GLU15      -0.2406
      9  OE2       16.6350    2.3560   49.1420 O.co2  15  GLU15      -0.2406
     10  N         22.4480    5.3010   54.8500 N.3    18  VAL18      -0.1245
     11  CA        22.0570    6.4940   54.0720 C.3    18  VAL18       0.1561
     12  C         20.8890    7.1050   54.8840 C.2    18  VAL18       0.2260
     13  O         20.7930    8.2970   55.1110 O.2    18  VAL18      -0.2867
     14  CB        21.5890    6.0500   52.6740 C.3    18  VAL18       0.0252
     15  CG1       21.0330    7.1790   51.8000 C.3    18  VAL18       0.0019
     16  CG2       22.5990    5.2330   51.9180 C.3    18  VAL18       0.0019
     17  N         14.5110    5.1620   54.0780 N.3    63  HIS63      -0.1241
     18  CA        14.6060    4.7400   52.6860 C.3    63  HIS63       0.1621
     19  C         14.5410    3.2120   52.5910 C.2    63  HIS63       0.2264
     20  O         15.2410    2.5540   53.3790 O.2    63  HIS63      -0.2867
     21  CB        15.9500    5.1670   52.0180 C.3    63  HIS63       0.0745
     22  CG        16.2170    6.6160   52.3080 C.ar   63  HIS63       0.0817
     23  ND1       15.4110    7.6270   51.8840 N.ar   63  HIS63      -0.2268
     24  CD2       17.2010    7.1970   53.0170 C.ar   63  HIS63       0.1154
     25  CE1       15.8800    8.7700   52.3340 C.ar   63  HIS63       0.1986
     26  NE2       16.9660    8.5500   53.0190 N.ar   63  HIS63      -0.2212
     27  N          9.7760    2.8470   53.1140 N.3    68  GLU68      -0.1245
     28  CA         9.2950    3.5470   51.9300 C.3    68  GLU68       0.1567
     29  C          8.1290    2.9240   51.2150 C.2    68  GLU68       0.2260
     30  O          7.5570    3.5870   50.3140 O.2    68  GLU68      -0.2867
     31  CB        10.4170    3.7300   50.8810 C.3    68  GLU68       0.0388
     32  CG        10.9700    5.1500   50.8300 C.3    68  GLU68       0.1160
     33  CD        11.9460    5.4010   49.7150 C.2    68  GLU68       0.3649
     34  OE1       13.0460    4.8140   49.9190 O.co2  68  GLU68      -0.2457
     35  OE2       11.6610    6.0890   48.7460 O.co2  68  GLU68      -0.2457
     36  N         16.7030    0.8420   46.2380 N.3   149  GLY149     -0.1210
     37  CA        17.0210    2.2760   46.0370 C.3   149  GLY149      0.1956
     38  C         18.5480    2.3370   46.1830 C.2   149  GLY149      0.2612
     39  O         19.1010    1.2630   46.4610 O.2   149  GLY149     -0.2717
     40  N         19.1160    3.5020   46.0030 N.am  150  SER150     -0.1952
     41  CA        20.5380    3.7600   46.1040 C.3   150  SER150      0.1924
     42  C         21.3780    2.8330   45.2160 C.2   150  SER150      0.2314
     43  O         22.5170    2.4300   45.5650 O.2   150  SER150     -0.2863
     44  CB        21.0580    3.7280   47.5190 C.3   150  SER150      0.2116
     45  OG        20.2300    4.2520   48.5150 O.3   150  SER150     -0.2180
     46  N         25.2090    5.7090   37.6770 N.3   210  TYR210     -0.1241
     47  CA        25.1560    6.4080   38.9930 C.3   210  TYR210      0.1605
     48  C         25.0700    5.2810   40.0120 C.2   210  TYR210      0.2264
     49  O         23.9550    5.0580   40.4950 O.2   210  TYR210     -0.2867
     50  CB        23.9800    7.3460   39.0460 C.3   210  TYR210      0.0534
     51  CG        23.9850    8.4970   39.9980 C.ar  210  TYR210     -0.0201
     52  CD1       25.1320    9.1040   40.5100 C.ar  210  TYR210     -0.0009
     53  CD2       22.7290    8.9930   40.3950 C.ar  210  TYR210     -0.0009
     54  CE1       25.0370   10.1940   41.3840 C.ar  210  TYR210      0.0417
     55  CE2       22.6150   10.0690   41.2670 C.ar  210  TYR210      0.0417
     56  CZ        23.7690   10.6730   41.7570 C.ar  210  TYR210      0.1957
     57  OH        23.5770   11.7390   42.6010 O.3   210  TYR210     -0.2866
     58  N         26.8830    7.9180   43.9920 N.3   215  LYS215     -0.1231
     59  CA        25.8490    8.6300   44.7290 C.3   215  LYS215      0.1693
     60  C         26.3010    9.1170   46.0950 C.2   215  LYS215      0.2592
     61  O         25.8150   10.1890   46.5170 O.2   215  LYS215     -0.2718
     62  CB        24.5640    7.8140   44.9020 C.3   215  LYS215      0.0285
     63  CG        23.9260    7.3470   43.6080 C.3   215  LYS215      0.0035
     64  CD        22.4460    7.0280   43.7270 C.3   215  LYS215      0.0206
     65  CE        21.9510    6.2040   42.5670 C.3   215  LYS215      0.1093
     66  NZ        20.6600    5.5260   42.8930 N.3   215  LYS215     -0.1314
     67  N         27.1700    8.3980   46.7840 N.am  216  TYR216     -0.1976
     68  CA        27.5790    8.7920   48.1330 C.3   216  TYR216      0.1639
     69  C         29.0440    8.9300   48.4360 C.2   216  TYR216      0.2290
     70  O         29.3640    9.8550   49.2210 O.2   216  TYR216     -0.2864
     71  CB        26.9650    7.8470   49.2140 C.3   216  TYR216      0.0560
     72  CG        25.4930    7.6280   48.9720 C.ar  216  TYR216     -0.0198
     73  CD1       24.5770    8.6780   49.0500 C.ar  216  TYR216     -0.0009
     74  CD2       25.0250    6.3520   48.6520 C.ar  216  TYR216     -0.0009
     75  CE1       23.2230    8.4480   48.8060 C.ar  216  TYR216      0.0417
     76  CE2       23.6710    6.1210   48.4220 C.ar  216  TYR216      0.0417
     77  CZ        22.7770    7.1670   48.4900 C.ar  216  TYR216      0.1957
     78  OH        21.4430    6.9060   48.2430 O.3   216  TYR216     -0.2866
     79  N         10.8890   12.4560   44.4460 N.3   255  ARG255     -0.1245
     80  CA        11.8660   12.6280   43.3690 C.3   255  ARG255      0.1563
     81  C         11.8390   11.5250   42.3090 C.2   255  ARG255      0.2260
     82  O         11.8800   10.3390   42.5950 O.2   255  ARG255     -0.2867
     83  CB        13.3020   12.7220   43.9610 C.3   255  ARG255      0.0307
     84  CG        14.1790   13.7200   43.2580 C.3   255  ARG255      0.0489
     85  CD        15.6220   13.6250   43.5040 C.3   255  ARG255      0.2205
     86  NE        16.2310   12.3940   43.0690 N.pl3 255  ARG255     -0.0865
     87  CZ        16.4920   11.3210   43.8130 C.cat 255  ARG255      0.5346
     88  NH1       16.2600   11.2520   45.1130 N.pl3 255  ARG255      0.1354
     89  NH2       17.0040   10.2630   43.1610 N.pl3 255  ARG255      0.1354
     90  N         13.5860   10.0140   38.7090 N.3   257  ASP257     -0.1239
     91  CA        14.7860    9.8220   37.8960 C.3   257  ASP257      0.1674
     92  C         14.2780    9.4420   36.4900 C.2   257  ASP257      0.2266
     93  O         13.4470    8.5570   36.2980 O.2   257  ASP257     -0.2867
     94  CB        15.7640    8.7780   38.3740 C.3   257  ASP257      0.1410
     95  CG        15.9650    8.7640   39.8630 C.2   257  ASP257      0.3668
     96  OD1       15.8480    9.8080   40.5270 O.co2 257  ASP257     -0.2456
     97  OD2       16.2320    7.6420   40.3290 O.co2 257  ASP257     -0.2456
     98  N         12.3930    5.4960   37.5060 N.3   270  GLU270     -0.1245
     99  CA        11.7020    5.1590   38.7580 C.3   270  GLU270      0.1567
    100  C         11.3040    6.4190   39.5170 C.2   270  GLU270      0.2260
    101  O         11.5730    7.5280   39.0390 O.2   270  GLU270     -0.2867
    102  CB        12.7190    4.4460   39.6700 C.3   270  GLU270      0.0388
    103  CG        13.8820    5.3020   40.1970 C.3   270  GLU270      0.1160
    104  CD        14.2250    5.0540   41.6350 C.2   270  GLU270      0.3649
    105  OE1       13.2070    4.7650   42.2940 O.co2 270  GLU270     -0.2457
    106  OE2       15.3140    5.1300   42.1530 O.co2 270  GLU270     -0.2457
    107  N         10.8960    8.1040   43.7660 N.3   272  ASN272     -0.1240
    108  CA        11.2450    8.0090   45.1950 C.3   272  ASN272      0.1653
    109  C         10.3930    8.8880   46.1130 C.2   272  ASN272      0.2266
    110  O         10.3960   10.1270   46.0130 O.2   272  ASN272     -0.2867
    111  CB        12.7700    8.2290   45.3110 C.3   272  ASN272      0.1155
    112  CG        13.5350    7.2230   44.4670 C.2   272  ASN272      0.2627
    113  OD1       14.0430    6.2030   44.9930 O.2   272  ASN272     -0.2716
    114  ND2       13.6140    7.5100   43.1600 N.am  272  ASN272     -0.0877
    115  N         10.6180    8.9900   49.6050 N.3   274  SER274     -0.1203
    116  CA        11.4480    9.2620   50.7560 C.3   274  SER274      0.2005
    117  C         12.9140    9.3710   50.2940 C.2   274  SER274      0.2461
    118  O         13.7650    8.5350   50.6340 O.2   274  SER274     -0.2732
    119  CB        11.3530    8.2570   51.8740 C.3   274  SER274      0.2103
    120  OG        12.2230    8.5750   52.9300 O.3   274  SER274     -0.2182
    121  N         13.1640   10.4290   49.5390 N.am  275  PRO275     -0.2717
    122  CA        14.4580   10.7480   48.9900 C.3   275  PRO275      0.1535
    123  C         15.5240   11.0210   50.0460 C.2   275  PRO275      0.2599
    124  O         15.2490   11.4350   51.1910 O.2   275  PRO275     -0.2715
    125  CB        14.2270   12.0260   48.1530 C.3   275  PRO275      0.0310
    126  CG        12.7520   11.9900   47.8550 C.3   275  PRO275      0.0237
    127  CD        12.1360   11.4300   49.1380 C.3   275  PRO275      0.0939
    128  N         16.7490   10.7850   49.5970 N.am  276  GLY276     -0.1955
    129  CA        17.9200   11.0070   50.4510 C.3   276  GLY276      0.1869
    130  C         17.9720   12.5060   50.8080 C.2   276  GLY276      0.2309
    131  O         17.4040   13.3340   50.0880 O.2   276  GLY276     -0.2863
    132  N         25.1730   14.7570   49.9080 N.3   280  HIS280     -0.1226
    133  CA        25.3710   14.3310   48.5350 C.3   280  HIS280      0.1752
    134  C         24.0180   14.2100   47.8300 C.2   280  HIS280      0.2597
    135  O         23.9210   14.1690   46.6070 O.2   280  HIS280     -0.2718
    136  CB        26.0580   12.9450   48.4460 C.3   280  HIS280      0.0759
    137  CG        27.5410   12.9350   48.4640 C.ar  280  HIS280      0.0818
    138  ND1       28.3120   12.9440   49.6080 N.ar  280  HIS280     -0.2268
    139  CD2       28.4320   12.8700   47.4420 C.ar  280  HIS280      0.1154
    140  CE1       29.5940   12.9090   49.2810 C.ar  280  HIS280      0.1986
    141  NE2       29.6920   12.8540   47.9800 N.ar  280  HIS280     -0.2212
    142  N         22.9570   14.1670   48.6350 N.am  281  SER281     -0.1938
    143  CA        21.6050   13.9930   48.0520 C.3   281  SER281      0.2055
    144  C         21.1700   15.1390   47.1720 C.2   281  SER281      0.2643
    145  O         21.5370   16.3080   47.2590 O.2   281  SER281     -0.2714
    146  CB        20.6500   13.5080   49.1100 C.3   281  SER281      0.2130
    147  OG        21.0940   12.1890   49.5180 O.3   281  SER281     -0.2179
    148  N         20.3410   14.7520   46.2280 N.am  282  LEU282     -0.1963
    149  CA        19.7120   15.5070   45.1690 C.3   282  LEU282      0.1728
    150  C         18.6090   16.4460   45.6010 C.2   282  LEU282      0.2616
    151  O         18.7230   17.6520   45.2450 O.2   282  LEU282     -0.2715
    152  CB        19.3090   14.5170   44.0640 C.3   282  LEU282      0.0311
    153  CG        20.4370   13.7950   43.3640 C.3   282  LEU282      0.0022
    154  CD1       19.9220   12.5310   42.6950 C.3   282  LEU282      0.0001
    155  CD2       21.0870   14.7070   42.3280 C.3   282  LEU282      0.0001
    156  N         17.5980   15.9950   46.3080 N.am  283  VAL283     -0.1977
    157  CA        16.5490   16.9430   46.7290 C.3   283  VAL283      0.1596
    158  C         17.1910   18.2210   47.2670 C.2   283  VAL283      0.2287
    159  O         16.9220   19.3060   46.7120 O.2   283  VAL283     -0.2864
    160  CB        15.5180   16.3030   47.6450 C.3   283  VAL283      0.0276
    161  CG1       14.6040   17.3390   48.3210 C.3   283  VAL283      0.0022
    162  CG2       14.6920   15.2510   46.9220 C.3   283  VAL283      0.0022
@<TRIPOS>BOND
     1    93    92    2
     2    92    91    1
     3    98    99    1
     4    46    47    1
     5    91    94    1
     6    91    90    1
     7    94    95    1
     8    99   100    1
     9    99   102    1
    10    47    50    1
    11    47    48    1
    12   101   100    2
    13    50    51    1
    14   102   103    1
    15    95    97   ar
    16    95    96   ar
    17    51    53   ar
    18    51    52   ar
    19    48    49    2
    20   103   104    1
    21    53    55   ar
    22    52    54   ar
    23    55    56   ar
    24    54    56   ar
    25   104   106   ar
    26   104   105   ar
    27    56    57    1
    28    81    82    2
    29    81    80    1
    30   155   153    1
    31    65    66    1
    32    65    64    1
    33   154   153    1
    34    86    85    1
    35    86    87    2
    36   114   112   am
    37    89    87    1
    38    84    85    1
    39    84    83    1
    40   153   152    1
    41    80    83    1
    42    80    79    1
    43    63    64    1
    44    63    62    1
    45   107   108    1
    46    87    88    1
    47    58    59    1
    48   152   149    1
    49   112   113    2
    50   112   111    1
    51    59    62    1
    52    59    60    1
    53   149   150    1
    54   149   148    1
    55   108   111    1
    56   108   109    1
    57    42    43    2
    58    42    41    1
    59   151   150    2
    60   150   156   am
    61    40    41    1
    62    40    38   am
    63   110   109    2
    64    37    38    1
    65    37    36    1
    66    60    61    2
    67    60    67   am
    68    41    44    1
    69    38    39    2
    70   148   144   am
    71   156   157    1
    72   135   134    2
    73   159   158    2
    74   157   158    1
    75   157   160    1
    76    67    68    1
    77   162   160    1
    78   144   145    2
    79   144   143    1
    80   139   141   ar
    81   139   137   ar
    82    44    45    1
    83   160   161    1
    84   134   133    1
    85   134   142   am
    86   126   125    1
    87   126   127    1
    88   141   140   ar
    89   143   142    1
    90   143   146    1
    91    68    69    1
    92    68    71    1
    93   125   122    1
    94    78    77    1
    95    76    77   ar
    96    76    74   ar
    97    69    70    2
    98   136   137    1
    99   136   133    1
   100   137   138   ar
   101    77    75   ar
   102   133   132    1
   103    74    72   ar
   104    35    33   ar
   105    75    73   ar
   106    72    73   ar
   107    72    71    1
   108   122   121    1
   109   122   123    1
   110   146   147    1
   111   127   121    1
   112     9     7   ar
   113     8     7   ar
   114   140   138   ar
   115     7     6    1
   116   121   117   am
   117   128   123   am
   118   128   129    1
   119   115   116    1
   120    33    34   ar
   121    33    32    1
   122   123   124    2
   123   131   130    2
   124   117   118    2
   125   117   116    1
   126    30    29    2
   127     6     5    2
   128   129   130    1
   129   116   119    1
   130    32    31    1
   131    31    28    1
   132    29    28    1
   133    15    14    1
   134     5     2    1
   135   119   120    1
   136    23    22   ar
   137    23    25   ar
   138    16    14    1
   139    28    27    1
   140    21    22    1
   141    21    18    1
   142    22    24   ar
   143    25    26   ar
   144    19    18    1
   145    19    20    2
   146     2     1    1
   147     2     3    1
   148    14    11    1
   149    18    17    1
   150    24    26   ar
   151     3     4    2
   152    11    10    1
   153    11    12    1
   154    12    13    2
