@<TRIPOS>MOLECULE
tmp/1ipbA00.pdb
 198 195 0 0 0
SMALL
GASTEIGER

@<TRIPOS>ATOM
      1  N         10.8470  -59.7020   25.7510 N.3    22  PHE22      -0.1241
      2  CA        11.8620  -60.7140   25.4470 C.3    22  PHE22       0.1605
      3  C         12.6370  -60.2640   24.2130 C.2    22  PHE22       0.2264
      4  O         12.0530  -60.0060   23.1610 O.2    22  PHE22      -0.2867
      5  CB        11.2180  -62.0850   25.1770 C.3    22  PHE22       0.0534
      6  CG        12.2160  -63.1740   24.8610 C.ar   22  PHE22      -0.0203
      7  CD1       12.8940  -63.8360   25.8780 C.ar   22  PHE22      -0.0042
      8  CD2       12.5060  -63.5080   23.5400 C.ar   22  PHE22      -0.0042
      9  CE1       13.8500  -64.8150   25.5880 C.ar   22  PHE22      -0.0003
     10  CE2       13.4610  -64.4840   23.2360 C.ar   22  PHE22      -0.0003
     11  CZ        14.1350  -65.1390   24.2670 C.ar   22  PHE22      -0.0000
     12  N         17.6990  -68.4100   27.5610 N.3    30  TRP30      -0.1227
     13  CA        16.3710  -67.8350   27.3590 C.3    30  TRP30       0.1737
     14  C         16.0490  -66.8390   28.4740 C.2    30  TRP30       0.2595
     15  O         15.6450  -65.7080   28.2080 O.2    30  TRP30      -0.2718
     16  CB        15.3150  -68.9490   27.3330 C.3    30  TRP30       0.0564
     17  CG        13.9230  -68.4680   27.0220 C.ar   30  TRP30       0.0003
     18  CD1       13.4100  -68.1710   25.7910 C.ar   30  TRP30       0.0946
     19  CD2       12.8840  -68.1940   27.9670 C.ar   30  TRP30       0.0152
     20  NE1       12.1130  -67.7270   25.9110 N.ar   30  TRP30      -0.2442
     21  CE2       11.7660  -67.7310   27.2370 C.ar   30  TRP30       0.0810
     22  CE3       12.7900  -68.2930   29.3640 C.ar   30  TRP30       0.0012
     23  CZ2       10.5640  -67.3660   27.8570 C.ar   30  TRP30       0.0191
     24  CZ3       11.5960  -67.9310   29.9820 C.ar   30  TRP30       0.0001
     25  CH2       10.4980  -67.4730   29.2260 C.ar   30  TRP30       0.0015
     26  N         16.2480  -67.2710   29.7170 N.am   31  GLN31      -0.1979
     27  CA        15.9790  -66.4570   30.9010 C.3    31  GLN31       0.1601
     28  C         16.7410  -65.1340   30.8840 C.2    31  GLN31       0.2287
     29  O         16.2390  -64.1120   31.3530 O.2    31  GLN31      -0.2864
     30  CB        16.3770  -67.2130   32.1750 C.3    31  GLN31       0.0394
     31  CG        15.8660  -68.6420   32.2940 C.3    31  GLN31       0.0908
     32  CD        16.4120  -69.5770   31.2250 C.2    31  GLN31       0.2608
     33  OE1       17.5840  -69.5000   30.8510 O.2    31  GLN31      -0.2717
     34  NE2       15.5650  -70.4750   30.7420 N.am   31  GLN31      -0.0878
     35  N          9.1160  -60.8850   22.2480 N.3    64  ASP64      -0.1239
     36  CA         7.7860  -61.1630   22.8040 C.3    64  ASP64       0.1674
     37  C          7.3910  -60.0970   23.8220 C.2    64  ASP64       0.2266
     38  O          8.2370  -59.3620   24.3350 O.2    64  ASP64      -0.2867
     39  CB         7.7010  -62.4960   23.5760 C.3    64  ASP64       0.1410
     40  CG         8.4050  -63.6480   22.8960 C.2    64  ASP64       0.3668
     41  OD1        8.2430  -63.8410   21.6750 O.co2  64  ASP64      -0.2456
     42  OD2        9.1110  -64.3860   23.6220 O.co2  64  ASP64      -0.2456
     43  N          6.5450  -65.1980   33.6290 N.3    74  PRO74      -0.2102
     44  CA         6.0350  -65.7730   32.3780 C.3    74  PRO74       0.1504
     45  C          6.8560  -66.9240   31.8060 C.2    74  PRO74       0.2576
     46  O          7.2900  -66.8610   30.6580 O.2    74  PRO74      -0.2718
     47  CB         6.0020  -64.5630   31.4450 C.3    74  PRO74       0.0282
     48  CG         7.2300  -63.8220   31.8480 C.3    74  PRO74       0.0208
     49  CD         7.1920  -63.8960   33.3810 C.3    74  PRO74       0.0893
     50  N          7.0470  -67.9780   32.6020 N.am   75  MET75      -0.1966
     51  CA         7.8190  -69.1440   32.1830 C.3    75  MET75       0.1736
     52  C          7.1990  -70.4410   32.7130 C.2    75  MET75       0.2616
     53  O          6.4990  -70.4300   33.7230 O.2    75  MET75      -0.2715
     54  CB         9.2620  -69.0230   32.6830 C.3    75  MET75       0.0427
     55  CG         9.3880  -68.8720   34.2030 C.3    75  MET75       0.0599
     56  SD        11.1020  -68.8410   34.7910 S.3    75  MET75      -0.1393
     57  CE        11.5690  -67.1520   34.4280 C.3    75  MET75       0.0692
     58  N          7.4640  -71.5520   32.0270 N.am   76  TRP76      -0.1960
     59  CA         6.9270  -72.8580   32.4170 C.3    76  TRP76       0.1771
     60  C          7.2520  -73.2560   33.8610 C.2    76  TRP76       0.2619
     61  O          6.4030  -73.7920   34.5800 O.2    76  TRP76      -0.2715
     62  CB         7.4770  -73.9770   31.5150 C.3    76  TRP76       0.0590
     63  CG         7.3180  -73.8140   30.0290 C.ar   76  TRP76       0.0006
     64  CD1        6.2050  -73.4020   29.3580 C.ar   76  TRP76       0.0946
     65  CD2        8.2920  -74.1450   29.0270 C.ar   76  TRP76       0.0152
     66  NE1        6.4230  -73.4600   27.9960 N.ar   76  TRP76      -0.2442
     67  CE2        7.6970  -73.9110   27.7690 C.ar   76  TRP76       0.0810
     68  CE3        9.6120  -74.6210   29.0740 C.ar   76  TRP76       0.0012
     69  CZ2        8.3760  -74.1340   26.5610 C.ar   76  TRP76       0.0191
     70  CZ3       10.2880  -74.8450   27.8760 C.ar   76  TRP76       0.0001
     71  CH2        9.6660  -74.6010   26.6350 C.ar   76  TRP76       0.0015
     72  N          8.4930  -73.0030   34.2640 N.am   77  GLU77      -0.1977
     73  CA         8.9960  -73.3730   35.5850 C.3    77  GLU77       0.1602
     74  C          8.2830  -72.8110   36.8200 C.2    77  GLU77       0.2287
     75  O          8.3990  -73.3740   37.9170 O.2    77  GLU77      -0.2864
     76  CB        10.4870  -73.0220   35.6650 C.3    77  GLU77       0.0415
     77  CG        11.3540  -73.6980   34.5870 C.3    77  GLU77       0.1163
     78  CD        11.5860  -72.8330   33.3490 C.2    77  GLU77       0.3649
     79  OE1       10.5990  -72.4040   32.6990 O.co2  77  GLU77      -0.2457
     80  OE2       12.7720  -72.5900   33.0240 O.co2  77  GLU77      -0.2457
     81  N         -1.6680  -73.7450   27.7600 N.3    86  ARG86      -0.1245
     82  CA        -2.0610  -72.5390   27.0310 C.3    86  ARG86       0.1563
     83  C         -3.0200  -72.7940   25.8600 C.2    86  ARG86       0.2260
     84  O         -2.9550  -73.8480   25.2200 O.2    86  ARG86      -0.2867
     85  CB        -0.8070  -71.8590   26.4700 C.3    86  ARG86       0.0307
     86  CG        -0.0540  -72.7420   25.4400 C.3    86  ARG86       0.0489
     87  CD         1.1330  -72.0430   24.7640 C.3    86  ARG86       0.2205
     88  NE         1.6900  -72.8590   23.6780 N.pl3  86  ARG86      -0.0865
     89  CZ         2.6470  -72.4640   22.8370 C.cat  86  ARG86       0.5346
     90  NH1        3.0760  -73.2880   21.8870 N.pl3  86  ARG86       0.1354
     91  NH2        3.1810  -71.2470   22.9360 N.pl3  86  ARG86       0.1354
     92  N          0.7650  -64.3040   26.2780 N.3   127  VAL127     -0.1245
     93  CA         2.0150  -64.0640   25.5610 C.3   127  VAL127      0.1561
     94  C          1.8420  -63.8860   24.0510 C.2   127  VAL127      0.2260
     95  O          1.1490  -64.6760   23.4150 O.2   127  VAL127     -0.2867
     96  CB         3.0000  -65.2550   25.7350 C.3   127  VAL127      0.0252
     97  CG1        4.3130  -64.9550   25.0160 C.3   127  VAL127      0.0019
     98  CG2        3.2370  -65.5470   27.2110 C.3   127  VAL127      0.0019
     99  N          4.0340  -63.7260   20.5110 N.3   129  ASN129     -0.1240
    100  CA         5.3350  -64.0070   19.8910 C.3   129  ASN129      0.1653
    101  C          5.3800  -63.4050   18.4720 C.2   129  ASN129      0.2266
    102  O          4.6190  -63.8260   17.6010 O.2   129  ASN129     -0.2867
    103  CB         5.5740  -65.5250   19.7360 C.3   129  ASN129      0.1155
    104  CG         5.4270  -66.3100   21.0400 C.2   129  ASN129      0.2627
    105  OD1        4.6710  -67.2810   21.0990 O.2   129  ASN129     -0.2716
    106  ND2        6.1660  -65.9130   22.0750 N.am  129  ASN129     -0.0877
    107  N          6.9910  -63.4050   15.1140 N.3   131  ARG131     -0.1245
    108  CA         7.8800  -64.2970   14.3650 C.3   131  ARG131      0.1563
    109  C          7.6600  -64.2080   12.8550 C.2   131  ARG131      0.2260
    110  O          6.5260  -64.0500   12.3910 O.2   131  ARG131     -0.2867
    111  CB         7.6530  -65.7500   14.8130 C.3   131  ARG131      0.0307
    112  CG         7.8670  -66.0190   16.3000 C.3   131  ARG131      0.0489
    113  CD         9.3440  -66.1360   16.6670 C.3   131  ARG131      0.2205
    114  NE         9.5480  -66.5010   18.0710 N.pl3 131  ARG131     -0.0865
    115  CZ         9.4100  -65.6680   19.1010 C.cat 131  ARG131      0.5346
    116  NH1        9.0660  -64.3990   18.8960 N.pl3 131  ARG131      0.1354
    117  NH2        9.6130  -66.1030   20.3420 N.pl3 131  ARG131      0.1354
    118  N          2.1340  -65.5230   16.9720 N.3   136  LYS136     -0.1245
    119  CA         1.3250  -66.3330   17.8770 C.3   136  LYS136      0.1561
    120  C          0.9160  -65.5580   19.1230 C.2   136  LYS136      0.2260
    121  O          1.6780  -64.7300   19.6300 O.2   136  LYS136     -0.2867
    122  CB         2.0970  -67.5880   18.3170 C.3   136  LYS136      0.0271
    123  CG         2.2030  -68.6880   17.2740 C.3   136  LYS136      0.0035
    124  CD         3.1060  -69.8290   17.7510 C.3   136  LYS136      0.0206
    125  CE         4.5790  -69.4290   17.7690 C.3   136  LYS136      0.1093
    126  NZ         5.4430  -70.5220   18.3170 N.3   136  LYS136     -0.1314
    127  N         -2.3930  -68.2880   29.0340 N.3   140  TRP140     -0.1241
    128  CA        -1.8730  -69.3420   29.9080 C.3   140  TRP140      0.1605
    129  C         -2.7570  -69.5430   31.1550 C.2   140  TRP140      0.2264
    130  O         -3.1390  -68.5680   31.8000 O.2   140  TRP140     -0.2867
    131  CB        -0.4470  -68.9690   30.3650 C.3   140  TRP140      0.0550
    132  CG         0.6460  -69.0550   29.3100 C.ar  140  TRP140      0.0003
    133  CD1        0.5290  -68.7850   27.9790 C.ar  140  TRP140      0.0946
    134  CD2        2.0190  -69.4270   29.5220 C.ar  140  TRP140      0.0152
    135  NE1        1.7380  -68.9680   27.3450 N.ar  140  TRP140     -0.2442
    136  CE2        2.6700  -69.3600   28.2670 C.ar  140  TRP140      0.0810
    137  CE3        2.7610  -69.8090   30.6510 C.ar  140  TRP140      0.0012
    138  CZ2        4.0320  -69.6630   28.1050 C.ar  140  TRP140      0.0191
    139  CZ3        4.1220  -70.1130   30.4900 C.ar  140  TRP140      0.0001
    140  CH2        4.7390  -70.0370   29.2230 C.ar  140  TRP140      0.0015
    141  N          5.4740  -80.4530   26.5070 N.3   177  THR177     -0.1203
    142  CA         6.3690  -79.8350   25.5230 C.3   177  THR177      0.1994
    143  C          7.3630  -80.8630   24.9740 C.2   177  THR177      0.2618
    144  O          8.0740  -81.5240   25.7300 O.2   177  THR177     -0.2717
    145  CB         7.1400  -78.6410   26.1420 C.3   177  THR177      0.1784
    146  OG1        6.2040  -77.6530   26.6000 O.3   177  THR177     -0.2211
    147  CG2        8.0750  -78.0080   25.1160 C.3   177  THR177      0.0376
    148  N          7.4080  -80.9900   23.6520 N.am  178  ALA178     -0.1965
    149  CA         8.2890  -81.9560   22.9980 C.3   178  ALA178      0.1728
    150  C          9.7710  -81.8160   23.3450 C.2   178  ALA178      0.2617
    151  O         10.3310  -80.7250   23.2910 O.2   178  ALA178     -0.2715
    152  CB         8.1000  -81.8800   21.4830 C.3   178  ALA178      0.0334
    153  N         10.4000  -82.9350   23.6980 N.am  179  THR179     -0.1937
    154  CA        11.8240  -82.9520   24.0320 C.3   179  THR179      0.2028
    155  C         12.5450  -84.0120   23.2050 C.2   179  THR179      0.2642
    156  O         13.7670  -84.1400   23.2690 O.2   179  THR179     -0.2714
    157  CB        12.0620  -83.2530   25.5300 C.3   179  THR179      0.1808
    158  OG1       11.5210  -84.5390   25.8580 O.3   179  THR179     -0.2208
    159  CG2       11.4080  -82.1870   26.3970 C.3   179  THR179      0.0379
    160  N         11.7780  -84.7740   22.4310 N.am  180  LYS180     -0.1963
    161  CA        12.3360  -85.8220   21.5830 C.3   180  LYS180      0.1728
    162  C         12.3370  -85.3750   20.1270 C.2   180  LYS180      0.2617
    163  O         11.2820  -85.2850   19.4980 O.2   180  LYS180     -0.2715
    164  CB        11.5190  -87.1100   21.7130 C.3   180  LYS180      0.0311
    165  CG        11.6130  -87.7890   23.0690 C.3   180  LYS180      0.0038
    166  CD        10.9180  -89.1430   23.0340 C.3   180  LYS180      0.0206
    167  CE        11.0700  -89.8930   24.3480 C.3   180  LYS180      0.1093
    168  NZ        10.4110  -91.2290   24.2990 N.3   180  LYS180     -0.1314
    169  N         13.5240  -85.0950   19.5990 N.am  181  SER181     -0.1936
    170  CA        13.6740  -84.6460   18.2190 C.3   181  SER181      0.2055
    171  C         12.9370  -85.5480   17.2330 C.2   181  SER181      0.2644
    172  O         13.4760  -86.5580   16.7780 O.2   181  SER181     -0.2714
    173  CB        15.1590  -84.5820   17.8490 C.3   181  SER181      0.2130
    174  OG        15.7830  -85.8430   18.0190 O.3   181  SER181     -0.2179
    175  N         11.7040  -85.1760   16.9020 N.am  182  GLY182     -0.1939
    176  CA        10.9190  -85.9630   15.9700 C.3   182  GLY182      0.2014
    177  C          9.4550  -86.0450   16.3570 C.2   182  GLY182      0.2640
    178  O          8.6940  -86.8200   15.7740 O.2   182  GLY182     -0.2714
    179  N          9.0580  -85.2450   17.3430 N.am  183  SER183     -0.1935
    180  CA         7.6760  -85.2310   17.8070 C.3   183  SER183      0.2055
    181  C          7.1990  -83.8090   18.0820 C.2   183  SER183      0.2644
    182  O          8.0020  -82.8780   18.1500 O.2   183  SER183     -0.2714
    183  CB         7.5400  -86.0710   19.0780 C.3   183  SER183      0.2130
    184  OG         8.3340  -85.5390   20.1220 O.3   183  SER183     -0.2179
    185  N          5.8860  -83.6520   18.2350 N.am  184  THR184     -0.1936
    186  CA         5.2830  -82.3480   18.5040 C.3   184  THR184      0.2028
    187  C          4.1660  -82.4560   19.5390 C.2   184  THR184      0.2642
    188  O          3.4240  -83.4400   19.5690 O.2   184  THR184     -0.2714
    189  CB         4.6970  -81.7230   17.2190 C.3   184  THR184      0.1808
    190  OG1        3.8060  -82.6560   16.5950 O.3   184  THR184     -0.2208
    191  CG2        5.8060  -81.3560   16.2460 C.3   184  THR184      0.0379
    192  N          4.0500  -81.4340   20.3810 N.am  185  THR185     -0.1950
    193  CA         3.0340  -81.4040   21.4270 C.3   185  THR185      0.1897
    194  C          1.6120  -81.5530   20.8770 C.2   185  THR185      0.2313
    195  O          1.2310  -80.8980   19.9070 O.2   185  THR185     -0.2863
    196  CB         3.1300  -80.0920   22.2420 C.3   185  THR185      0.1794
    197  OG1        4.4280  -80.0010   22.8430 O.3   185  THR185     -0.2208
    198  CG2        2.0670  -80.0570   23.3320 C.3   185  THR185      0.0378
@<TRIPOS>BOND
     1   110   109    2
     2   109   108    1
     3   108   111    1
     4   108   107    1
     5   111   112    1
     6   178   177    2
     7   176   177    1
     8   176   175    1
     9   191   189    1
    10   112   113    1
    11   177   179   am
    12   190   189    1
    13   113   114    1
    14   172   171    2
    15   175   171   am
    16   118   119    1
    17   189   186    1
    18   171   170    1
    19   123   124    1
    20   123   122    1
    21   179   180    1
    22   102   101    2
    23   124   125    1
    24   125   126    1
    25   180   181    1
    26   180   183    1
    27   173   174    1
    28   173   170    1
    29   119   122    1
    30   119   120    1
    31   114   115    2
    32   181   182    2
    33   181   185   am
    34   170   169    1
    35   185   186    1
    36   101   100    1
    37   186   187    1
    38   116   115    1
    39   183   184    1
    40   115   117    1
    41   120   121    2
    42   163   162    2
    43   187   188    2
    44   187   192   am
    45   169   162   am
    46   103   100    1
    47   103   104    1
    48   100    99    1
    49   195   194    2
    50   162   161    1
    51   192   193    1
    52   194   193    1
    53   104   105    2
    54   104   106   am
    55   193   196    1
    56   152   149    1
    57   161   164    1
    58   161   160    1
    59    41    40   ar
    60   164   165    1
    61    90    89    1
    62   196   197    1
    63   196   198    1
    64    35    36    1
    65   160   155   am
    66    36    39    1
    67    36    37    1
    68    89    91    1
    69    89    88    2
    70    40    39    1
    71    40    42   ar
    72   149   150    1
    73   149   148    1
    74   166   165    1
    75   166   167    1
    76     4     3    2
    77   155   156    2
    78   155   154    1
    79    10     8   ar
    80    10    11   ar
    81   151   150    2
    82   150   153   am
    83    95    94    2
    84     8     6   ar
    85   148   143   am
    86    88    87    1
    87   153   154    1
    88    37    38    2
    89   154   157    1
    90    94    93    1
    91     3     2    1
    92    11     9   ar
    93   168   167    1
    94    87    86    1
    95     6     5    1
    96     6     7   ar
    97   143   142    1
    98   143   144    2
    99    97    96    1
   100   147   145    1
   101     5     2    1
   102    84    83    2
   103    86    85    1
   104     2     1    1
   105   142   145    1
   106   142   141    1
   107   157   158    1
   108   157   159    1
   109    93    96    1
   110    93    92    1
   111     9     7   ar
   112    96    98    1
   113    18    20   ar
   114    18    17   ar
   115    83    82    1
   116    20    21   ar
   117   145   146    1
   118    85    82    1
   119    69    71   ar
   120    69    67   ar
   121    71    70   ar
   122    17    16    1
   123    17    19   ar
   124    82    81    1
   125    21    23   ar
   126    21    19   ar
   127    16    13    1
   128   135   133   ar
   129   135   136   ar
   130    13    12    1
   131    13    14    1
   132    67    66   ar
   133    67    65   ar
   134    23    25   ar
   135    70    68   ar
   136    19    22   ar
   137   133   132   ar
   138    66    64   ar
   139   138   136   ar
   140   138   140   ar
   141    15    14    2
   142   136   134   ar
   143    14    26   am
   144    65    68   ar
   145    65    63   ar
   146   127   128    1
   147   140   139   ar
   148    25    24   ar
   149   132   134   ar
   150   132   131    1
   151    64    63   ar
   152    22    24   ar
   153   134   137   ar
   154    26    27    1
   155   128   131    1
   156   128   129    1
   157    63    62    1
   158   139   137   ar
   159    46    45    2
   160    34    32   am
   161    33    32    2
   162    28    27    1
   163    28    29    2
   164    27    30    1
   165   129   130    2
   166    32    31    1
   167    47    48    1
   168    47    44    1
   169    62    59    1
   170    45    44    1
   171    45    50   am
   172    48    49    1
   173    58    59    1
   174    58    52   am
   175    30    31    1
   176    51    50    1
   177    51    54    1
   178    51    52    1
   179    44    43    1
   180    59    60    1
   181    54    55    1
   182    79    78   ar
   183    52    53    2
   184    80    78   ar
   185    78    77    1
   186    49    43    1
   187    60    72   am
   188    60    61    2
   189    55    56    1
   190    72    73    1
   191    57    56    1
   192    77    76    1
   193    73    76    1
   194    73    74    1
   195    74    75    2
