@<TRIPOS>MOLECULE
tmp/1iq1C00.pdb
 208 196 0 0 0
SMALL
GASTEIGER

@<TRIPOS>ATOM
      1  N         48.9030   69.9790   51.5350 N.3   169  LYS169     -0.1245
      2  CA        49.6510   68.7650   51.2080 C.3   169  LYS169      0.1561
      3  C         51.1350   68.8080   50.8080 C.2   169  LYS169      0.2260
      4  O         51.8010   67.7660   50.8280 O.2   169  LYS169     -0.2867
      5  CB        48.8870   67.9820   50.1320 C.3   169  LYS169      0.0271
      6  CG        47.7510   67.1220   50.6650 C.3   169  LYS169      0.0035
      7  CD        46.9090   66.5650   49.5260 C.3   169  LYS169      0.0206
      8  CE        47.7200   65.6710   48.6100 C.3   169  LYS169      0.1093
      9  NZ        46.8860   65.1890   47.4800 N.3   169  LYS169     -0.1314
     10  N         42.7210   62.2460   55.0490 N.3   208  THR208     -0.1203
     11  CA        42.5700   61.0740   54.1890 C.3   208  THR208      0.1994
     12  C         42.9500   61.3490   52.7370 C.2   208  THR208      0.2618
     13  O         42.9150   60.4500   51.8920 O.2   208  THR208     -0.2717
     14  CB        41.1320   60.5410   54.2110 C.3   208  THR208      0.1784
     15  OG1       40.2550   61.5220   53.6460 O.3   208  THR208     -0.2211
     16  CG2       40.7080   60.2260   55.6360 C.3   208  THR208      0.0376
     17  N         43.2980   62.5930   52.4400 N.am  209  ASP209     -0.1959
     18  CA        43.7030   62.9470   51.0910 C.3   209  ASP209      0.1840
     19  C         45.2250   62.8480   50.9800 C.2   209  ASP209      0.2623
     20  O         45.9390   63.8430   51.1250 O.2   209  ASP209     -0.2715
     21  CB        43.2310   64.3620   50.7560 C.3   209  ASP209      0.1450
     22  CG        43.7060   64.8390   49.3880 C.2   209  ASP209      0.3671
     23  OD1       44.1380   64.0080   48.5540 O.co2 209  ASP209     -0.2456
     24  OD2       43.6290   66.0630   49.1440 O.co2 209  ASP209     -0.2456
     25  N         45.7140   61.6380   50.7270 N.am  210  GLY210     -0.1940
     26  CA        47.1430   61.4250   50.5960 C.3   210  GLY210      0.1998
     27  C         47.4450   59.9500   50.4250 C.2   210  GLY210      0.2481
     28  O         46.5760   59.1930   49.9780 O.2   210  GLY210     -0.2729
     29  N         48.6690   59.5100   50.7680 N.am  211  PRO211     -0.2715
     30  CA        49.1110   58.1140   50.6660 C.3   211  PRO211      0.1536
     31  C         48.2910   57.1880   51.5750 C.2   211  PRO211      0.2598
     32  O         47.6540   57.6360   52.5340 O.2   211  PRO211     -0.2715
     33  CB        50.5690   58.1880   51.1030 C.3   211  PRO211      0.0310
     34  CG        50.9720   59.5510   50.6990 C.3   211  PRO211      0.0237
     35  CD        49.7940   60.3730   51.1550 C.3   211  PRO211      0.0939
     36  N         48.3260   55.8940   51.2810 N.am  212  ASN212     -0.1973
     37  CA        47.5740   54.9180   52.0630 C.3   212  ASN212      0.1688
     38  C         47.9420   54.8900   53.5340 C.2   212  ASN212      0.2292
     39  O         47.0940   54.5740   54.3750 O.2   212  ASN212     -0.2864
     40  CB        47.7570   53.5200   51.4780 C.3   212  ASN212      0.1181
     41  CG        47.0730   53.3550   50.1340 C.2   212  ASN212      0.2629
     42  OD1       47.2040   52.3150   49.4940 O.2   212  ASN212     -0.2716
     43  ND2       46.3380   54.3770   49.7000 N.am  212  ASN212     -0.0877
     44  N         45.7530   57.4980   55.0890 N.3   215  ILE215     -0.1245
     45  CA        44.3880   57.0060   55.1870 C.3   215  ILE215      0.1561
     46  C         44.2790   56.0270   56.3560 C.2   215  ILE215      0.2260
     47  O         43.3460   56.0880   57.1640 O.2   215  ILE215     -0.2867
     48  CB        43.9760   56.2740   53.8900 C.3   215  ILE215      0.0252
     49  CG1       44.0620   57.2380   52.7040 C.3   215  ILE215      0.0019
     50  CG2       42.5700   55.7030   54.0340 C.3   215  ILE215      0.0019
     51  CD1       43.6670   56.6240   51.3860 C.3   215  ILE215      0.0001
     52  N         33.5430   63.5340   51.0540 N.3   244  ARG244     -0.1245
     53  CA        34.9040   63.7470   50.5920 C.3   244  ARG244      0.1563
     54  C         35.8270   62.7650   51.2990 C.2   244  ARG244      0.2260
     55  O         36.6990   62.1550   50.6770 O.2   244  ARG244     -0.2867
     56  CB        35.3490   65.1790   50.8800 C.3   244  ARG244      0.0307
     57  CG        36.8030   65.4570   50.5170 C.3   244  ARG244      0.0489
     58  CD        37.0980   65.1310   49.0490 C.3   244  ARG244      0.2205
     59  NE        36.2300   65.8890   48.1560 N.pl3 244  ARG244     -0.0865
     60  CZ        36.1920   67.2180   48.1040 C.cat 244  ARG244      0.5346
     61  NH1       36.9830   67.9410   48.8890 N.pl3 244  ARG244      0.1354
     62  NH2       35.3420   67.8240   47.2840 N.pl3 244  ARG244      0.1354
     63  N         37.8020   59.7380   49.5470 N.3   248  ASN248     -0.1240
     64  CA        39.2630   59.6430   49.6340 C.3   248  ASN248      0.1653
     65  C         39.6800   58.2850   50.1910 C.2   248  ASN248      0.2266
     66  O         40.5990   57.6480   49.6770 O.2   248  ASN248     -0.2867
     67  CB        39.8490   60.7210   50.5510 C.3   248  ASN248      0.1155
     68  CG        39.8960   62.0930   49.9060 C.2   248  ASN248      0.2627
     69  OD1       40.0420   62.2270   48.6900 O.2   248  ASN248     -0.2716
     70  ND2       39.8040   63.1260   50.7310 N.am  248  ASN248     -0.0877
     71  N         38.3540   55.5400   49.8790 N.3   250  VAL250     -0.1231
     72  CA        38.2310   54.4620   48.9000 C.3   250  VAL250      0.1692
     73  C         39.2240   54.5520   47.7630 C.2   250  VAL250      0.2593
     74  O         39.0420   53.9170   46.7280 O.2   250  VAL250     -0.2718
     75  CB        36.8080   54.3510   48.3000 C.3   250  VAL250      0.0266
     76  CG1       35.8230   53.9650   49.3860 C.3   250  VAL250      0.0020
     77  CG2       36.4070   55.6490   47.6280 C.3   250  VAL250      0.0020
     78  N         40.2680   55.3500   47.9390 N.am  251  THR251     -0.1939
     79  CA        41.3070   55.4420   46.9220 C.3   251  THR251      0.2028
     80  C         42.4880   54.6290   47.4730 C.2   251  THR251      0.2642
     81  O         43.5190   54.4520   46.8120 O.2   251  THR251     -0.2714
     82  CB        41.7510   56.8970   46.6710 C.3   251  THR251      0.1808
     83  OG1       42.2180   57.4750   47.8960 O.3   251  THR251     -0.2208
     84  CG2       40.5950   57.7230   46.1180 C.3   251  THR251      0.0379
     85  N         42.3040   54.1170   48.6900 N.am  252  GLY252     -0.1954
     86  CA        43.3350   53.3290   49.3440 C.3   252  GLY252      0.1869
     87  C         43.2630   51.8450   49.0420 C.2   252  GLY252      0.2309
     88  O         42.7120   51.4290   48.0200 O.2   252  GLY252     -0.2863
     89  N         42.1900   47.9080   49.1880 N.3   254  ASP254     -0.1239
     90  CA        40.8690   47.2980   49.1550 C.3   254  ASP254      0.1674
     91  C         40.3540   47.0100   50.5440 C.2   254  ASP254      0.2266
     92  O         39.1430   46.9650   50.7570 O.2   254  ASP254     -0.2867
     93  CB        40.8890   45.9970   48.3590 C.3   254  ASP254      0.1410
     94  CG        41.2790   46.2090   46.9110 C.2   254  ASP254      0.3668
     95  OD1       41.2070   47.3650   46.4320 O.co2 254  ASP254     -0.2456
     96  OD2       41.6420   45.2110   46.2510 O.co2 254  ASP254     -0.2456
     97  N         38.8760   50.1670   51.6630 N.3   257  THR257     -0.1218
     98  CA        37.6160   50.3500   50.9530 C.3   257  THR257      0.1862
     99  C         36.5540   49.4750   51.6050 C.2   257  THR257      0.2287
    100  O         35.4290   49.9090   51.8580 O.2   257  THR257     -0.2866
    101  CB        37.7310   49.9200   49.4870 C.3   257  THR257      0.1770
    102  OG1       38.7370   50.6980   48.8370 O.3   257  THR257     -0.2211
    103  CG2       36.4140   50.1250   48.7700 C.3   257  THR257      0.0375
    104  N         28.7650   64.4880   41.6660 N.3   282  LYS282     -0.1231
    105  CA        30.0550   64.2320   41.0300 C.3   282  LYS282      0.1693
    106  C         30.9310   63.4290   42.0020 C.2   282  LYS282      0.2591
    107  O         31.5030   62.4010   41.6350 O.2   282  LYS282     -0.2718
    108  CB        30.7490   65.5550   40.6720 C.3   282  LYS282      0.0285
    109  CG        32.0630   65.3930   39.9060 C.3   282  LYS282      0.0035
    110  CD        33.0830   66.4790   40.2720 C.3   282  LYS282      0.0206
    111  CE        32.5900   67.8860   39.9290 C.3   282  LYS282      0.1093
    112  NZ        33.5080   68.9840   40.3820 N.3   282  LYS282     -0.1314
    113  N         31.0300   63.9040   43.2420 N.am  283  GLU283     -0.1979
    114  CA        31.8270   63.2290   44.2660 C.3   283  GLU283      0.1602
    115  C         31.3550   61.7910   44.4530 C.2   283  GLU283      0.2287
    116  O         32.1590   60.8720   44.5860 O.2   283  GLU283     -0.2864
    117  CB        31.7030   63.9600   45.6020 C.3   283  GLU283      0.0415
    118  CG        32.2300   65.3890   45.6110 C.3   283  GLU283      0.1163
    119  CD        33.7370   65.4570   45.6940 C.2   283  GLU283      0.3649
    120  OE1       34.3070   64.8640   46.6380 O.co2 283  GLU283     -0.2457
    121  OE2       34.3460   66.1110   44.8240 O.co2 283  GLU283     -0.2457
    122  N         32.3510   59.6940   41.4510 N.3   286  TRP286     -0.1241
    123  CA        33.8010   59.5220   41.5360 C.3   286  TRP286      0.1605
    124  C         34.0870   58.4040   42.5490 C.2   286  TRP286      0.2264
    125  O         34.8490   57.4700   42.2760 O.2   286  TRP286     -0.2867
    126  CB        34.4360   60.8420   41.9930 C.3   286  TRP286      0.0550
    127  CG        35.8310   60.7410   42.5280 C.ar  286  TRP286      0.0003
    128  CD1       36.9500   60.3200   41.8570 C.ar  286  TRP286      0.0946
    129  CD2       36.2640   61.1040   43.8420 C.ar  286  TRP286      0.0152
    130  NE1       38.0530   60.4000   42.6780 N.ar  286  TRP286     -0.2442
    131  CE2       37.6600   60.8770   43.9020 C.ar  286  TRP286      0.0810
    132  CE3       35.6060   61.5960   44.9800 C.ar  286  TRP286      0.0012
    133  CZ2       38.4140   61.1370   45.0550 C.ar  286  TRP286      0.0191
    134  CZ3       36.3530   61.8550   46.1290 C.ar  286  TRP286      0.0001
    135  CH2       37.7440   61.6210   46.1570 C.ar  286  TRP286      0.0015
    136  N         33.3870   55.0380   41.2340 N.3   289  SER289     -0.1202
    137  CA        34.3890   54.5670   40.2900 C.3   289  SER289      0.2020
    138  C         35.5640   53.9580   41.0430 C.2   289  SER289      0.2618
    139  O         36.2590   53.0870   40.5200 O.2   289  SER289     -0.2717
    140  CB        34.8830   55.7160   39.4110 C.3   289  SER289      0.2103
    141  OG        35.8080   56.5280   40.1110 O.3   289  SER289     -0.2182
    142  N         35.7970   54.4120   42.2680 N.am  290  ASN290     -0.1974
    143  CA        36.8980   53.8540   43.0400 C.3   290  ASN290      0.1688
    144  C         36.4970   52.6050   43.7780 C.2   290  ASN290      0.2292
    145  O         37.3160   51.9970   44.4610 O.2   290  ASN290     -0.2864
    146  CB        37.4420   54.8600   44.0350 C.3   290  ASN290      0.1181
    147  CG        38.2150   55.9410   43.3650 C.2   290  ASN290      0.2629
    148  OD1       39.0810   55.6590   42.5320 O.2   290  ASN290     -0.2716
    149  ND2       37.9120   57.2000   43.7100 N.am  290  ASN290     -0.0877
    150  N         36.4230   49.9010   40.8940 N.3   293  ALA293     -0.1231
    151  CA        37.7990   49.6210   40.5140 C.3   293  ALA293      0.1694
    152  C         38.4670   48.7220   41.5390 C.2   293  ALA293      0.2592
    153  O         39.6840   48.7170   41.6490 O.2   293  ALA293     -0.2718
    154  CB        38.5790   50.9150   40.3820 C.3   293  ALA293      0.0304
    155  N         37.6780   47.9550   42.2830 N.am  294  GLY294     -0.1957
    156  CA        38.2620   47.0890   43.2910 C.3   294  GLY294      0.1869
    157  C         38.0250   45.6000   43.1120 C.2   294  GLY294      0.2309
    158  O         37.9210   45.0870   41.9900 O.2   294  GLY294     -0.2863
    159  N         33.5650   43.0570   45.7930 N.3   298  GLN298     -0.1245
    160  CA        33.2200   44.4330   46.1030 C.3   298  GLN298      0.1566
    161  C         32.3350   44.9330   44.9690 C.2   298  GLN298      0.2260
    162  O         31.2900   45.5400   45.2140 O.2   298  GLN298     -0.2867
    163  CB        34.4820   45.2880   46.2510 C.3   298  GLN298      0.0367
    164  CG        35.4180   44.7670   47.3450 C.3   298  GLN298      0.0905
    165  CD        36.5150   45.7460   47.7230 C.2   298  GLN298      0.2608
    166  OE1       37.2790   46.2100   46.8710 O.2   298  GLN298     -0.2717
    167  NE2       36.6050   46.0580   49.0120 N.am  298  GLN298     -0.0878
    168  N         32.7740   60.8730   35.4650 N.3   325  GLU325     -0.1245
    169  CA        33.0490   60.0240   36.6220 C.3   325  GLU325      0.1567
    170  C         32.3120   58.7010   36.4640 C.2   325  GLU325      0.2260
    171  O         32.7490   57.6610   36.9640 O.2   325  GLU325     -0.2867
    172  CB        32.5950   60.7110   37.9130 C.3   325  GLU325      0.0388
    173  CG        33.4730   61.8790   38.3540 C.3   325  GLU325      0.1160
    174  CD        34.9430   61.4980   38.4820 C.2   325  GLU325      0.3649
    175  OE1       35.2440   60.4080   39.0260 O.co2 325  GLU325     -0.2457
    176  OE2       35.8000   62.2980   38.0430 O.co2 325  GLU325     -0.2457
    177  N         34.1450   56.3720   33.9840 N.3   328  TRP328     -0.1241
    178  CA        35.1850   55.6440   34.7060 C.3   328  TRP328      0.1605
    179  C         34.6040   54.5280   35.5480 C.2   328  TRP328      0.2264
    180  O         35.0340   53.3830   35.4470 O.2   328  TRP328     -0.2867
    181  CB        36.0070   56.5840   35.5980 C.3   328  TRP328      0.0550
    182  CG        37.0240   57.3890   34.8330 C.ar  328  TRP328      0.0003
    183  CD1       36.8690   58.6490   34.3300 C.ar  328  TRP328      0.0946
    184  CD2       38.3320   56.9580   34.4380 C.ar  328  TRP328      0.0152
    185  NE1       37.9990   59.0310   33.6450 N.ar  328  TRP328     -0.2442
    186  CE2       38.9130   58.0140   33.6990 C.ar  328  TRP328      0.0810
    187  CE3       39.0710   55.7850   34.6410 C.ar  328  TRP328      0.0012
    188  CZ2       40.1990   57.9300   33.1560 C.ar  328  TRP328      0.0191
    189  CZ3       40.3490   55.7020   34.1000 C.ar  328  TRP328      0.0001
    190  CH2       40.9000   56.7710   33.3680 C.ar  328  TRP328      0.0015
    191  N         35.9350   50.8950   34.8920 N.3   332  ASN332     -0.1240
    192  CA        36.6260   50.1670   35.9600 C.3   332  ASN332      0.1653
    193  C         35.8930   48.8620   36.2890 C.2   332  ASN332      0.2266
    194  O         36.5090   47.8260   36.5540 O.2   332  ASN332     -0.2867
    195  CB        36.7220   51.0140   37.2390 C.3   332  ASN332      0.1155
    196  CG        37.7070   52.1750   37.1200 C.2   332  ASN332      0.2627
    197  OD1       38.7710   52.0660   36.4940 O.2   332  ASN332     -0.2716
    198  ND2       37.3630   53.2910   37.7490 N.am  332  ASN332     -0.0877
    199  N         36.4690   46.5530   33.7010 N.3   335  SER335     -0.1202
    200  CA        37.8930   46.2520   33.7060 C.3   335  SER335      0.2020
    201  C         38.2670   45.1430   34.6840 C.2   335  SER335      0.2619
    202  O         39.2270   44.4150   34.4500 O.2   335  SER335     -0.2717
    203  CB        38.6970   47.5120   34.0430 C.3   335  SER335      0.2103
    204  OG        40.0790   47.2190   34.1690 O.3   335  SER335     -0.2182
    205  N         37.5190   45.0050   35.7720 N.am  336  GLY336     -0.1956
    206  CA        37.8590   43.9780   36.7340 C.3   336  GLY336      0.1869
    207  C         36.7160   43.0850   37.1570 C.2   336  GLY336      0.2309
    208  O         36.8950   42.2080   38.0030 O.2   336  GLY336     -0.2863
@<TRIPOS>BOND
     1   188   190   ar
     2   188   186   ar
     3   190   189   ar
     4   185   186   ar
     5   185   183   ar
     6   186   184   ar
     7   199   200    1
     8   200   203    1
     9   200   201    1
    10   177   178    1
    11   203   204    1
    12   189   187   ar
    13   183   182   ar
    14   184   187   ar
    15   184   182   ar
    16   202   201    2
    17   201   205   am
    18   178   179    1
    19   178   181    1
    20   182   181    1
    21   191   192    1
    22   180   179    2
    23   168   169    1
    24   205   206    1
    25   192   193    1
    26   192   195    1
    27   193   194    2
    28   170   169    1
    29   170   171    2
    30   197   196    2
    31   169   172    1
    32   206   207    1
    33   196   195    1
    34   196   198   am
    35   207   208    2
    36   172   173    1
    37   176   174   ar
    38   173   174    1
    39   174   175   ar
    40   140   141    1
    41   140   137    1
    42   109   110    1
    43   109   108    1
    44   111   110    1
    45   111   112    1
    46   137   138    1
    47   137   136    1
    48   154   151    1
    49   151   150    1
    50   151   152    1
    51   139   138    2
    52   108   105    1
    53   105   104    1
    54   105   106    1
    55   138   142   am
    56   122   123    1
    57   123   126    1
    58   123   124    1
    59   152   153    2
    60   152   155   am
    61   107   106    2
    62   128   127   ar
    63   128   130   ar
    64   158   157    2
    65   126   127    1
    66   106   113   am
    67   142   143    1
    68   125   124    2
    69   155   156    1
    70   127   129   ar
    71   148   147    2
    72   130   131   ar
    73   143   144    1
    74   143   146    1
    75   157   156    1
    76   113   114    1
    77   147   149   am
    78   147   146    1
    79   144   145    2
    80   129   131   ar
    81   129   132   ar
    82   131   133   ar
    83   114   115    1
    84   114   117    1
    85   115   116    2
    86   121   119   ar
    87   161   162    2
    88   161   160    1
    89   132   134   ar
    90   133   135   ar
    91   117   118    1
    92   118   119    1
    93   119   120   ar
    94   159   160    1
    95   160   163    1
    96    84    82    1
    97   134   135   ar
    98    96    94   ar
    99   163   164    1
   100    95    94   ar
   101    82    79    1
   102    82    83    1
   103    74    73    2
   104    81    80    2
   105   166   165    2
   106    94    93    1
   107    79    80    1
   108    79    78    1
   109    62    60    1
   110   164   165    1
   111    80    85   am
   112     9     8    1
   113    77    75    1
   114   165   167   am
   115    73    78   am
   116    73    72    1
   117    88    87    2
   118    60    59    2
   119    60    61    1
   120    59    58    1
   121    75    72    1
   122    75    76    1
   123    93    90    1
   124    23    22   ar
   125     8     7    1
   126    85    86    1
   127    69    68    2
   128   103   101    1
   129   102   101    1
   130    72    71    1
   131    87    86    1
   132    58    57    1
   133    24    22   ar
   134    90    89    1
   135    90    91    1
   136    22    21    1
   137   101    98    1
   138    42    41    2
   139     7     6    1
   140    63    64    1
   141    64    65    1
   142    64    67    1
   143    66    65    2
   144    43    41   am
   145    68    67    1
   146    68    70   am
   147    28    27    2
   148     5     6    1
   149     5     2    1
   150    41    40    1
   151    27    26    1
   152    27    29   am
   153    57    56    1
   154    91    92    2
   155    53    56    1
   156    53    52    1
   157    53    54    1
   158    26    25    1
   159    30    29    1
   160    30    33    1
   161    30    31    1
   162    55    54    2
   163    34    33    1
   164    34    35    1
   165    25    19   am
   166    21    18    1
   167    29    35    1
   168     3     4    2
   169     3     2    1
   170    98    99    1
   171    98    97    1
   172    19    18    1
   173    19    20    2
   174    18    17    1
   175     2     1    1
   176    36    31   am
   177    36    37    1
   178    51    49    1
   179    40    37    1
   180    31    32    2
   181    99   100    2
   182    13    12    2
   183    37    38    1
   184    17    12   am
   185    49    48    1
   186    12    11    1
   187    38    39    2
   188    15    14    1
   189    48    50    1
   190    48    45    1
   191    11    14    1
   192    11    10    1
   193    14    16    1
   194    44    45    1
   195    45    46    1
   196    46    47    2
