@<TRIPOS>MOLECULE
tmp/1iqeA00.pdb
 209 205 0 0 0
SMALL
GASTEIGER

@<TRIPOS>ATOM
      1  N         19.2390   20.4520   10.2710 N.3    27  CYS27      -0.1235
      2  CA        18.2690   20.5710   11.3550 C.3    27  CYS27       0.1677
      3  C         18.8150   21.2790   12.5860 C.2    27  CYS27       0.2270
      4  O         20.0280   21.3950   12.7780 O.2    27  CYS27      -0.2867
      5  CB        17.7690   19.1880   11.7780 C.3    27  CYS27       0.0956
      6  SG        16.3090   18.5490   10.8890 S.3    27  CYS27      -0.0801
      7  N         11.2940   13.8790   13.4800 N.3    42  HIS42      -0.1241
      8  CA        11.3680   13.7170   12.0390 C.3    42  HIS42       0.1621
      9  C         12.7770   14.0340   11.5090 C.2    42  HIS42       0.2264
     10  O         13.1690   13.5330   10.4510 O.2    42  HIS42      -0.2867
     11  CB        10.3340   14.6230   11.3690 C.3    42  HIS42       0.0745
     12  CG        10.6220   16.0800   11.5280 C.ar   42  HIS42       0.0817
     13  ND1        9.7300   16.9550   12.1080 N.ar   42  HIS42      -0.2268
     14  CD2       11.7060   16.8170   11.1900 C.ar   42  HIS42       0.1154
     15  CE1       10.2540   18.1670   12.1230 C.ar   42  HIS42       0.1986
     16  NE2       11.4530   18.1100   11.5720 N.ar   42  HIS42      -0.2212
     17  N         15.8460   12.9450    7.9680 N.3    46  GLN46      -0.1245
     18  CA        16.5110   13.8390    7.0350 C.3    46  GLN46       0.1566
     19  C         17.9810   13.5400    6.7560 C.2    46  GLN46       0.2260
     20  O         18.6630   14.3300    6.1030 O.2    46  GLN46      -0.2867
     21  CB        16.3640   15.2770    7.5340 C.3    46  GLN46       0.0367
     22  CG        15.7070   16.2060    6.5270 C.3    46  GLN46       0.0905
     23  CD        14.3030   15.7700    6.1500 C.2    46  GLN46       0.2608
     24  OE1       13.7170   16.2950    5.2040 O.2    46  GLN46      -0.2717
     25  NE2       13.7540   14.8120    6.8920 N.am   46  GLN46      -0.0878
     26  N          4.9390   10.1410   10.2050 N.3    82  LYS82      -0.1231
     27  CA         4.8220   11.3180    9.3580 C.3    82  LYS82       0.1693
     28  C          3.3880   11.4380    8.8470 C.2    82  LYS82       0.2592
     29  O          2.9750   12.4890    8.3530 O.2    82  LYS82      -0.2718
     30  CB         5.8160   11.2040    8.2010 C.3    82  LYS82       0.0285
     31  CG         6.0690    9.7630    7.7560 C.3    82  LYS82       0.0035
     32  CD         6.8410    8.9620    8.8060 C.3    82  LYS82       0.0206
     33  CE         6.7680    7.4710    8.5230 C.3    82  LYS82       0.1093
     34  NZ         5.3600    6.9910    8.4870 N.3    82  LYS82      -0.1314
     35  N          2.6340   10.3500    8.9780 N.am   83  GLU83      -0.1966
     36  CA         1.2410   10.3240    8.5600 C.3    83  GLU83       0.1733
     37  C          0.5110   11.4220    9.3160 C.2    83  GLU83       0.2617
     38  O         -0.2870   12.1570    8.7460 O.2    83  GLU83      -0.2715
     39  CB         0.6000    8.9780    8.9090 C.3    83  GLU83       0.0429
     40  CG         1.4040    7.7390    8.4910 C.3    83  GLU83       0.1163
     41  CD         1.3830    7.4720    6.9830 C.2    83  GLU83       0.3649
     42  OE1        1.9620    6.4430    6.5540 O.co2  83  GLU83      -0.2457
     43  OE2        0.7910    8.2840    6.2310 O.co2  83  GLU83      -0.2457
     44  N          0.8150   11.5370   10.6050 N.am   84  THR84      -0.1937
     45  CA         0.1760   12.5200   11.4750 C.3    84  THR84       0.2028
     46  C          1.1130   13.5750   12.0460 C.2    84  THR84       0.2642
     47  O          0.6820   14.6850   12.3620 O.2    84  THR84      -0.2714
     48  CB        -0.4660   11.8300   12.6600 C.3    84  THR84       0.1808
     49  OG1        0.5620   11.2500   13.4740 O.3    84  THR84      -0.2208
     50  CG2       -1.3960   10.7320   12.1900 C.3    84  THR84       0.0379
     51  N          2.3860   13.2180   12.1960 N.am   85  TYR85      -0.1973
     52  CA         3.3820   14.1260   12.7550 C.3    85  TYR85       0.1639
     53  C          3.1630   14.3150   14.2610 C.2    85  TYR85       0.2290
     54  O          3.6280   15.2860   14.8610 O.2    85  TYR85      -0.2864
     55  CB         3.3410   15.4740   12.0220 C.3    85  TYR85       0.0560
     56  CG         4.3240   15.5580   10.8770 C.ar   85  TYR85      -0.0198
     57  CD1        5.6080   16.0710   11.0730 C.ar   85  TYR85      -0.0009
     58  CD2        4.0020   15.0510    9.6150 C.ar   85  TYR85      -0.0009
     59  CE1        6.5470   16.0700   10.0480 C.ar   85  TYR85       0.0417
     60  CE2        4.9350   15.0440    8.5850 C.ar   85  TYR85       0.0417
     61  CZ         6.2040   15.5530    8.8130 C.ar   85  TYR85       0.1957
     62  OH         7.1410   15.5140    7.8140 O.3    85  TYR85      -0.2866
     63  N         16.1070   28.7550    6.4090 N.3   132  ARG132     -0.1245
     64  CA        16.0120   29.6190    5.2400 C.3   132  ARG132      0.1563
     65  C         15.4230   31.0060    5.5020 C.2   132  ARG132      0.2260
     66  O         14.5560   31.1740    6.3560 O.2   132  ARG132     -0.2867
     67  CB        15.2210   28.8830    4.1640 C.3   132  ARG132      0.0307
     68  CG        15.7630   27.4820    3.9420 C.3   132  ARG132      0.0489
     69  CD        14.7560   26.5520    3.3080 C.3   132  ARG132      0.2205
     70  NE        14.4300   26.9180    1.9380 N.pl3 132  ARG132     -0.0865
     71  CZ        13.8400   26.0950    1.0780 C.cat 132  ARG132      0.5346
     72  NH1       13.5720   26.5000   -0.1550 N.pl3 132  ARG132      0.1354
     73  NH2       13.5290   24.8610    1.4510 N.pl3 132  ARG132      0.1354
     74  N         10.5570   31.1700    2.3730 N.3   135  GLU135     -0.1245
     75  CA        10.0670   29.8440    2.0190 C.3   135  GLU135      0.1567
     76  C         10.9080   29.0390    1.0420 C.2   135  GLU135      0.2260
     77  O         11.5050   28.0360    1.4270 O.2   135  GLU135     -0.2867
     78  CB         8.6370   29.9210    1.5020 C.3   135  GLU135      0.0388
     79  CG         7.9230   28.5920    1.5750 C.3   135  GLU135      0.1160
     80  CD         6.6070   28.6220    0.8560 C.2   135  GLU135      0.3649
     81  OE1        5.8370   29.5880    1.0800 O.co2 135  GLU135     -0.2457
     82  OE2        6.3520   27.6790    0.0720 O.co2 135  GLU135     -0.2457
     83  N         -4.4050   20.4730    8.8450 N.3   162  PHE162     -0.1227
     84  CA        -4.2240   19.1580    9.4470 C.3   162  PHE162      0.1736
     85  C         -4.6010   19.1670   10.9230 C.2   162  PHE162      0.2595
     86  O         -4.7510   20.2280   11.5290 O.2   162  PHE162     -0.2718
     87  CB        -2.7670   18.7180    9.2980 C.3   162  PHE162      0.0547
     88  CG        -2.2760   18.7030    7.8820 C.ar  162  PHE162     -0.0202
     89  CD1       -2.2150   17.5170    7.1670 C.ar  162  PHE162     -0.0042
     90  CD2       -1.8500   19.8750    7.2700 C.ar  162  PHE162     -0.0042
     91  CE1       -1.7340   17.4990    5.8710 C.ar  162  PHE162     -0.0003
     92  CE2       -1.3650   19.8640    5.9660 C.ar  162  PHE162     -0.0003
     93  CZ        -1.3070   18.6730    5.2700 C.ar  162  PHE162     -0.0000
     94  N         -4.7460   17.9790   11.4970 N.am  163  ILE163     -0.1980
     95  CA        -5.0970   17.8610   12.9070 C.3   163  ILE163      0.1595
     96  C         -3.9980   18.4640   13.7850 C.2   163  ILE163      0.2287
     97  O         -2.8100   18.2660   13.5370 O.2   163  ILE163     -0.2864
     98  CB        -5.2750   16.3820   13.3250 C.3   163  ILE163      0.0276
     99  CG1       -6.2990   15.6880   12.4220 C.3   163  ILE163      0.0022
    100  CG2       -5.7100   16.3090   14.7790 C.3   163  ILE163      0.0022
    101  CD1       -6.4950   14.2100   12.7450 C.3   163  ILE163      0.0001
    102  N          8.6020   33.5290   10.6340 N.3   179  ASP179     -0.1225
    103  CA         8.2820   32.1510   10.9390 C.3   179  ASP179      0.1805
    104  C          9.5710   31.3400   10.8750 C.2   179  ASP179      0.2598
    105  O         10.6470   31.8910   10.6820 O.2   179  ASP179     -0.2718
    106  CB         7.2980   31.6400    9.8920 C.3   179  ASP179      0.1424
    107  CG         6.5300   30.4160   10.3430 C.2   179  ASP179      0.3668
    108  OD1        7.1280   29.4870   10.9370 O.co2 179  ASP179     -0.2456
    109  OD2        5.3090   30.3860   10.0780 O.co2 179  ASP179     -0.2456
    110  N          9.4580   30.0310   11.0550 N.am  180  ALA180     -0.1966
    111  CA        10.6070   29.1470   10.9870 C.3   180  ALA180      0.1728
    112  C         10.6110   28.6470    9.5530 C.2   180  ALA180      0.2616
    113  O          9.9810   29.2550    8.6930 O.2   180  ALA180     -0.2715
    114  CB        10.4410   27.9930   11.9560 C.3   180  ALA180      0.0334
    115  N         11.3010   27.5480    9.2850 N.am  181  CYS181     -0.1954
    116  CA        11.3420   27.0290    7.9220 C.3   181  CYS181      0.1843
    117  C         12.2470   25.8060    7.8490 C.2   181  CYS181      0.2625
    118  O         12.7080   25.3210    8.8840 O.2   181  CYS181     -0.2714
    119  CB        11.8420   28.1210    6.9760 C.3   181  CYS181      0.0997
    120  SG        11.2340   27.9840    5.2690 S.3   181  CYS181     -0.0797
    121  N         12.4970   25.3020    6.6430 N.am  182  GLN182     -0.1977
    122  CA        13.3500   24.1260    6.4920 C.3   182  GLN182      0.1601
    123  C         14.7150   24.4120    7.1230 C.2   182  GLN182      0.2287
    124  O         15.3220   25.4590    6.8690 O.2   182  GLN182     -0.2864
    125  CB        13.5010   23.7710    5.0100 C.3   182  GLN182      0.0394
    126  CG        14.4850   22.6420    4.7070 C.3   182  GLN182      0.0908
    127  CD        15.7440   23.1230    3.9630 C.2   182  GLN182      0.2608
    128  OE1       15.6570   23.8650    2.9780 O.2   182  GLN182     -0.2717
    129  NE2       16.9180   22.6860    4.4300 N.am  182  GLN182     -0.0878
    130  N         13.8600   23.2770   11.7290 N.3   185  SER185     -0.1217
    131  CA        13.2110   22.0850   12.2360 C.3   185  SER185      0.1889
    132  C         14.0910   21.2890   13.2050 C.2   185  SER185      0.2288
    133  O         15.2520   21.0080   12.9090 O.2   185  SER185     -0.2866
    134  CB        12.8060   21.2080   11.0500 C.3   185  SER185      0.2089
    135  OG        11.9760   20.1420   11.4540 O.3   185  SER185     -0.2183
    136  N         10.7400   22.9990   17.2110 N.3   203  VAL203     -0.1231
    137  CA        10.3220   23.4010   15.8530 C.3   203  VAL203      0.1692
    138  C          9.8600   22.1400   15.1390 C.2   203  VAL203      0.2593
    139  O         10.6610   21.2320   14.9120 O.2   203  VAL203     -0.2718
    140  CB        11.4930   23.9670   15.0150 C.3   203  VAL203      0.0266
    141  CG1       11.0560   24.1500   13.5750 C.3   203  VAL203      0.0020
    142  CG2       11.9650   25.2940   15.5810 C.3   203  VAL203      0.0020
    143  N          8.5850   22.0880   14.7610 N.am  204  SER204     -0.1938
    144  CA         8.0390   20.8970   14.1100 C.3   204  SER204      0.2055
    145  C          7.7300   21.0200   12.6180 C.2   204  SER204      0.2643
    146  O          8.4290   20.4400   11.7920 O.2   204  SER204     -0.2714
    147  CB         6.7780   20.4390   14.8510 C.3   204  SER204      0.2130
    148  OG         6.4520   19.0910   14.5580 O.3   204  SER204     -0.2179
    149  N          6.6880   21.7710   12.2750 N.am  205  TRP205     -0.1959
    150  CA         6.2840   21.9160   10.8780 C.3   205  TRP205      0.1771
    151  C          5.3770   23.1180   10.6420 C.2   205  TRP205      0.2620
    152  O          5.0650   23.8730   11.5590 O.2   205  TRP205     -0.2715
    153  CB         5.5340   20.6680   10.4290 C.3   205  TRP205      0.0590
    154  CG         4.3080   20.4460   11.2370 C.ar  205  TRP205      0.0006
    155  CD1        4.2540   20.0980   12.5510 C.ar  205  TRP205      0.0946
    156  CD2        2.9480   20.5970   10.8050 C.ar  205  TRP205      0.0152
    157  NE1        2.9490   20.0220   12.9690 N.ar  205  TRP205     -0.2442
    158  CE2        2.1250   20.3210   11.9180 C.ar  205  TRP205      0.0810
    159  CE3        2.3440   20.9360    9.5830 C.ar  205  TRP205      0.0012
    160  CZ2        0.7310   20.3720   11.8500 C.ar  205  TRP205      0.0191
    161  CZ3        0.9590   20.9840    9.5140 C.ar  205  TRP205      0.0001
    162  CH2        0.1660   20.7030   10.6440 C.ar  205  TRP205      0.0015
    163  N          4.9420   23.2680    9.3960 N.am  206  GLY206     -0.1940
    164  CA         4.0620   24.3660    9.0370 C.3   206  GLY206      0.2014
    165  C          3.7950   24.4390    7.5460 C.2   206  GLY206      0.2639
    166  O          4.6580   24.0560    6.7390 O.2   206  GLY206     -0.2714
    167  N          2.5970   24.9100    7.1840 N.am  207  GLU207     -0.1963
    168  CA         2.1940   25.0720    5.7810 C.3   207  GLU207      0.1733
    169  C          2.9790   26.2430    5.1830 C.2   207  GLU207      0.2617
    170  O          2.5860   27.4160    5.2880 O.2   207  GLU207     -0.2715
    171  CB         0.6860   25.3350    5.6860 C.3   207  GLU207      0.0429
    172  CG        -0.1780   24.0680    5.7500 C.3   207  GLU207      0.1163
    173  CD        -1.5770   24.3060    6.3280 C.2   207  GLU207      0.3649
    174  OE1       -2.2840   25.2510    5.9070 O.co2 207  GLU207     -0.2457
    175  OE2       -1.9740   23.5290    7.2130 O.co2 207  GLU207     -0.2457
    176  N          4.1050   25.8990    4.5630 N.am  208  GLY208     -0.1940
    177  CA         4.9670   26.8990    3.9690 C.3   208  GLY208      0.2014
    178  C          5.7380   27.6150    5.0600 C.2   208  GLY208      0.2639
    179  O          5.8460   27.1110    6.1770 O.2   208  GLY208     -0.2714
    180  N          6.2800   28.7840    4.7360 N.am  209  CYS209     -0.1967
    181  CA         7.0310   29.5760    5.6980 C.3   209  CYS209      0.1712
    182  C          6.4990   31.0030    5.6560 C.2   209  CYS209      0.2296
    183  O          6.5900   31.6920    4.6370 O.2   209  CYS209     -0.2864
    184  CB         8.5460   29.5280    5.3810 C.3   209  CYS209      0.0983
    185  SG         9.2130   27.8270    5.4300 S.3   209  CYS209     -0.0798
    186  N          3.2050   28.5720   12.7900 N.3   216  GLY216     -0.1210
    187  CA         4.2790   27.6030   12.9320 C.3   216  GLY216      0.1956
    188  C          3.9080   26.5790   13.9840 C.2   216  GLY216      0.2612
    189  O          3.5710   26.9440   15.1100 O.2   216  GLY216     -0.2717
    190  N          3.9840   25.3030   13.6180 N.am  217  ILE217     -0.1965
    191  CA         3.6170   24.2090   14.5120 C.3   217  ILE217      0.1727
    192  C          4.7810   23.5860   15.2860 C.2   217  ILE217      0.2616
    193  O          5.6400   22.9400   14.6930 O.2   217  ILE217     -0.2715
    194  CB         2.9220   23.0830   13.7140 C.3   217  ILE217      0.0290
    195  CG1        2.0180   23.6880   12.6310 C.3   217  ILE217      0.0022
    196  CG2        2.1340   22.1920   14.6560 C.3   217  ILE217      0.0023
    197  CD1        1.1370   24.8250   13.1170 C.3   217  ILE217      0.0001
    198  N          4.7850   23.7630   16.6090 N.am  218  TYR218     -0.1974
    199  CA         5.8400   23.2170   17.4650 C.3   218  TYR218      0.1639
    200  C          5.3620   22.0580   18.3340 C.2   218  TYR218      0.2290
    201  O          4.1660   21.8690   18.5350 O.2   218  TYR218     -0.2864
    202  CB         6.4070   24.2870   18.3960 C.3   218  TYR218      0.0560
    203  CG         6.7530   25.5830   17.7250 C.ar  218  TYR218     -0.0198
    204  CD1        5.7560   26.4480   17.3000 C.ar  218  TYR218     -0.0009
    205  CD2        8.0850   25.9500   17.5100 C.ar  218  TYR218     -0.0009
    206  CE1        6.0650   27.6540   16.6670 C.ar  218  TYR218      0.0417
    207  CE2        8.4110   27.1610   16.8780 C.ar  218  TYR218      0.0417
    208  CZ         7.3910   28.0080   16.4530 C.ar  218  TYR218      0.1957
    209  OH         7.6770   29.1810   15.7710 O.3   218  TYR218     -0.2866
@<TRIPOS>BOND
     1    72    71    1
     2    82    80   ar
     3    80    81   ar
     4    80    79    1
     5    76    77    2
     6    76    75    1
     7    71    73    1
     8    71    70    2
     9    78    79    1
    10    78    75    1
    11    70    69    1
    12    75    74    1
    13   128   127    2
    14    69    68    1
    15    68    67    1
    16   127   129   am
    17   127   126    1
    18   177   176    1
    19   177   178    1
    20    67    64    1
    21   176   169   am
    22   183   182    2
    23   126   125    1
    24   180   178   am
    25   180   181    1
    26   125   122    1
    27   178   179    2
    28   169   170    2
    29   169   168    1
    30    24    23    2
    31    64    65    1
    32    64    63    1
    33   120   185    1
    34   120   119    1
    35    93    91   ar
    36    93    92   ar
    37   184   185    1
    38   184   181    1
    39    65    66    2
    40   182   181    1
    41   171   172    1
    42   171   168    1
    43   172   173    1
    44   168   167    1
    45    91    89   ar
    46   174   173   ar
    47    92    90   ar
    48    20    19    2
    49    23    22    1
    50    23    25   am
    51    43    41   ar
    52   173   175   ar
    53   122   121    1
    54   122   123    1
    55    22    21    1
    56    42    41   ar
    57   121   117   am
    58   166   165    2
    59    19    18    1
    60   124   123    2
    61   119   116    1
    62    41    40    1
    63    18    21    1
    64    18    17    1
    65    89    88   ar
    66   167   165   am
    67    90    88   ar
    68   165   164    1
    69    31    30    1
    70    31    32    1
    71    62    61    1
    72   117   116    1
    73   117   118    2
    74    88    87    1
    75   116   115    1
    76    30    27    1
    77    29    28    2
    78    34    33    1
    79    40    39    1
    80    33    32    1
    81    36    39    1
    82    36    35    1
    83    36    37    1
    84    60    61   ar
    85    60    58   ar
    86   113   112    2
    87    38    37    2
    88    61    59   ar
    89    83    84    1
    90    28    35   am
    91    28    27    1
    92   164   163    1
    93   115   112   am
    94    87    84    1
    95    37    44   am
    96    27    26    1
    97   163   151   am
    98    84    85    1
    99   161   159   ar
   100   161   162   ar
   101   112   111    1
   102   159   156   ar
   103    58    56   ar
   104   106   107    1
   105   106   103    1
   106    59    57   ar
   107   109   107   ar
   108     1     2    1
   109   107   108   ar
   110   153   150    1
   111   153   154    1
   112    10     9    2
   113    44    45    1
   114   102   103    1
   115   151   150    1
   116   151   152    2
   117   162   160   ar
   118   105   104    2
   119   156   154   ar
   120   156   158   ar
   121   104   103    1
   122   104   110   am
   123    56    57   ar
   124    56    55    1
   125   150   149    1
   126     6     5    1
   127    85    94   am
   128    85    86    2
   129   111   110    1
   130   111   114    1
   131   134   135    1
   132   134   131    1
   133    14    12   ar
   134    14    16   ar
   135   154   155   ar
   136     2     5    1
   137     2     3    1
   138    11    12    1
   139    11     8    1
   140    45    46    1
   141    45    48    1
   142    94    95    1
   143     9     8    1
   144    12    13   ar
   145    16    15   ar
   146   130   131    1
   147   146   145    2
   148   160   158   ar
   149   158   157   ar
   150    55    52    1
   151     8     7    1
   152    46    51   am
   153    46    47    2
   154    13    15   ar
   155    50    48    1
   156    51    52    1
   157   131   132    1
   158   149   145   am
   159    99   101    1
   160    99    98    1
   161   155   157   ar
   162     3     4    2
   163   145   144    1
   164   195   197    1
   165   195   194    1
   166    48    49    1
   167    52    53    1
   168   186   187    1
   169    95    98    1
   170    95    96    1
   171   133   132    2
   172   187   188    1
   173    98   100    1
   174    97    96    2
   175   141   140    1
   176   190   188   am
   177   190   191    1
   178   194   191    1
   179   194   196    1
   180   188   189    2
   181   144   143    1
   182   144   147    1
   183    53    54    2
   184   191   192    1
   185   148   147    1
   186   193   192    2
   187   143   138   am
   188   139   138    2
   189   140   142    1
   190   140   137    1
   191   138   137    1
   192   192   198   am
   193   209   208    1
   194   137   136    1
   195   208   206   ar
   196   208   207   ar
   197   198   199    1
   198   206   204   ar
   199   207   205   ar
   200   204   203   ar
   201   199   200    1
   202   199   202    1
   203   205   203   ar
   204   203   202    1
   205   200   201    2
