@<TRIPOS>MOLECULE
tmp/1iqiA00.pdb
 195 195 0 0 0
SMALL
GASTEIGER

@<TRIPOS>ATOM
      1  N         11.0210   13.8970   14.1050 N.3    42  HIS42      -0.1241
      2  CA        10.9690   13.6870   12.6620 C.3    42  HIS42       0.1621
      3  C         12.2340   14.1170   11.9220 C.2    42  HIS42       0.2264
      4  O         12.2560   14.1380   10.6940 O.2    42  HIS42      -0.2867
      5  CB         9.7580   14.4070   12.0560 C.3    42  HIS42       0.0745
      6  CG        10.0190   15.8330   11.6830 C.ar   42  HIS42       0.0817
      7  ND1       10.3290   16.8030   12.6090 N.ar   42  HIS42      -0.2268
      8  CD2       10.0130   16.4530   10.4790 C.ar   42  HIS42       0.1154
      9  CE1       10.5040   17.9600   11.9950 C.ar   42  HIS42       0.1986
     10  NE2       10.3180   17.7760   10.7010 N.ar   42  HIS42      -0.2212
     11  N          4.7590    9.8780   10.9450 N.3    82  LYS82      -0.1231
     12  CA         4.8460   10.8690    9.8830 C.3    82  LYS82       0.1693
     13  C          3.4750   11.3250    9.3780 C.2    82  LYS82       0.2592
     14  O          3.2630   12.5090    9.1110 O.2    82  LYS82      -0.2718
     15  CB         5.6700   10.3000    8.7170 C.3    82  LYS82       0.0285
     16  CG         5.4810    8.8020    8.4840 C.3    82  LYS82       0.0035
     17  CD         6.1050    7.9840    9.6150 C.3    82  LYS82       0.0206
     18  CE         5.6480    6.5350    9.6070 C.3    82  LYS82       0.1093
     19  NZ         6.0720    5.8300   10.8550 N.3    82  LYS82      -0.1314
     20  N          2.5520   10.3740    9.2620 N.am   83  GLU83      -0.1966
     21  CA         1.2030   10.6250    8.7680 C.3    83  GLU83       0.1733
     22  C          0.4660   11.7720    9.4400 C.2    83  GLU83       0.2617
     23  O         -0.2850   12.4890    8.7860 O.2    83  GLU83      -0.2715
     24  CB         0.3680    9.3470    8.8660 C.3    83  GLU83       0.0429
     25  CG         0.8430    8.3770    9.9460 C.3    83  GLU83       0.1163
     26  CD         1.9870    7.4720    9.4840 C.2    83  GLU83       0.3649
     27  OE1        2.6110    6.8130   10.3500 O.co2  83  GLU83      -0.2457
     28  OE2        2.2510    7.4130    8.2570 O.co2  83  GLU83      -0.2457
     29  N          0.6820   11.9610   10.7350 N.am   84  THR84      -0.1937
     30  CA         0.0070   13.0430   11.4480 C.3    84  THR84       0.2028
     31  C          0.9330   13.9320   12.2620 C.2    84  THR84       0.2642
     32  O          0.4720   14.8660   12.9140 O.2    84  THR84      -0.2714
     33  CB        -1.0410   12.4980   12.4100 C.3    84  THR84       0.1808
     34  OG1       -0.4050   11.6290   13.3590 O.3    84  THR84      -0.2208
     35  CG2       -2.1260   11.7450   11.6430 C.3    84  THR84       0.0379
     36  N          2.2300   13.6370   12.2300 N.am   85  TYR85      -0.1973
     37  CA         3.2140   14.4130   12.9780 C.3    85  TYR85       0.1639
     38  C          2.8480   14.5650   14.4490 C.2    85  TYR85       0.2290
     39  O          3.0620   15.6210   15.0450 O.2    85  TYR85      -0.2864
     40  CB         3.3860   15.8020   12.3630 C.3    85  TYR85       0.0560
     41  CG         4.3160   15.8500   11.1780 C.ar   85  TYR85      -0.0198
     42  CD1        4.0620   15.0940   10.0280 C.ar   85  TYR85      -0.0009
     43  CD2        5.4570   16.6570   11.2000 C.ar   85  TYR85      -0.0009
     44  CE1        4.9270   15.1420    8.9260 C.ar   85  TYR85       0.0417
     45  CE2        6.3250   16.7140   10.1070 C.ar   85  TYR85       0.0417
     46  CZ         6.0530   15.9560    8.9780 C.ar   85  TYR85       0.1957
     47  OH         6.9040   16.0220    7.9070 O.3    85  TYR85      -0.2866
     48  N         11.1900   30.7060    2.6880 N.3   135  GLU135     -0.1245
     49  CA        10.6530   29.4940    2.0550 C.3   135  GLU135      0.1567
     50  C         11.4460   28.8280    0.9280 C.2   135  GLU135      0.2260
     51  O         11.9110   27.7000    1.0820 O.2   135  GLU135     -0.2867
     52  CB         9.2230   29.7520    1.5710 C.3   135  GLU135      0.0388
     53  CG         8.8970   31.2190    1.3530 C.3   135  GLU135      0.1160
     54  CD         8.4850   31.9270    2.6340 C.2   135  GLU135      0.3649
     55  OE1        7.4340   31.5520    3.1990 O.co2 135  GLU135     -0.2457
     56  OE2        9.2020   32.8530    3.0720 O.co2 135  GLU135     -0.2457
     57  N         -4.6370   20.6690    9.4630 N.3   162  PHE162     -0.1227
     58  CA        -4.2980   19.3770   10.0570 C.3   162  PHE162      0.1736
     59  C         -4.6460   19.3670   11.5430 C.2   162  PHE162      0.2595
     60  O         -4.4600   20.3600   12.2340 O.2   162  PHE162     -0.2718
     61  CB        -2.8070   19.0970    9.8950 C.3   162  PHE162      0.0547
     62  CG        -2.3770   18.8870    8.4750 C.ar  162  PHE162     -0.0202
     63  CD1       -2.7500   17.7460    7.7850 C.ar  162  PHE162     -0.0042
     64  CD2       -1.5750   19.8220    7.8340 C.ar  162  PHE162     -0.0042
     65  CE1       -2.3270   17.5380    6.4760 C.ar  162  PHE162     -0.0003
     66  CE2       -1.1480   19.6220    6.5260 C.ar  162  PHE162     -0.0003
     67  CZ        -1.5240   18.4780    5.8470 C.ar  162  PHE162     -0.0000
     68  N         -5.1400   18.2400   12.0360 N.am  163  ILE163     -0.1980
     69  CA        -5.5110   18.1330   13.4410 C.3   163  ILE163      0.1595
     70  C         -4.4140   18.5810   14.4040 C.2   163  ILE163      0.2287
     71  O         -3.3840   17.9280   14.5250 O.2   163  ILE163     -0.2864
     72  CB        -5.8970   16.6890   13.8010 C.3   163  ILE163      0.0276
     73  CG1       -7.0890   16.2500   12.9570 C.3   163  ILE163      0.0022
     74  CG2       -6.2200   16.5930   15.2790 C.3   163  ILE163      0.0022
     75  CD1       -8.3320   17.1070   13.1470 C.3   163  ILE163      0.0001
     76  N          8.5170   33.7200   10.7570 N.3   179  ASP179     -0.1225
     77  CA         8.1230   32.3780   11.1550 C.3   179  ASP179      0.1805
     78  C          9.1640   31.3500   10.7080 C.2   179  ASP179      0.2598
     79  O          9.5120   31.2880    9.5370 O.2   179  ASP179     -0.2718
     80  CB         6.7610   32.0600   10.5280 C.3   179  ASP179      0.1424
     81  CG         6.3680   30.5970   10.6550 C.2   179  ASP179      0.3668
     82  OD1        6.4380   30.0300   11.7710 O.co2 179  ASP179     -0.2456
     83  OD2        5.9670   30.0180    9.6220 O.co2 179  ASP179     -0.2456
     84  N          9.6570   30.5560   11.6550 N.am  180  ALA180     -0.1966
     85  CA        10.6370   29.5030   11.3980 C.3   180  ALA180      0.1728
     86  C         10.3660   28.8040   10.0880 C.2   180  ALA180      0.2616
     87  O          9.2400   28.4640    9.7980 O.2   180  ALA180     -0.2715
     88  CB        10.5920   28.4910   12.5070 C.3   180  ALA180      0.0334
     89  N         11.4050   28.5570    9.3070 N.am  181  CYS181     -0.1954
     90  CA        11.2240   27.9080    8.0210 C.3   181  CYS181      0.1843
     91  C         11.9360   26.5620    7.9410 C.2   181  CYS181      0.2625
     92  O         12.3100   25.9950    8.9740 O.2   181  CYS181     -0.2714
     93  CB        11.7310   28.8210    6.9210 C.3   181  CYS181      0.0997
     94  SG        10.9700   28.4160    5.3350 S.3   181  CYS181     -0.0797
     95  N         12.1320   26.0440    6.7290 N.am  182  GLN182     -0.1977
     96  CA        12.8070   24.7620    6.6110 C.3   182  GLN182      0.1601
     97  C         14.1990   24.7800    7.2260 C.2   182  GLN182      0.2287
     98  O         14.9510   25.7410    7.0550 O.2   182  GLN182     -0.2864
     99  CB        12.9030   24.2970    5.1520 C.3   182  GLN182      0.0394
    100  CG        13.0390   25.3650    4.0810 C.3   182  GLN182      0.0908
    101  CD        13.4760   24.7550    2.7360 C.2   182  GLN182      0.2608
    102  OE1       13.2530   23.5610    2.4830 O.2   182  GLN182     -0.2717
    103  NE2       14.0940   25.5700    1.8730 N.am  182  GLN182     -0.0878
    104  N         13.5350   22.7530   12.1780 N.3   185  SER185     -0.1217
    105  CA        12.9530   21.6100   12.8870 C.3   185  SER185      0.1889
    106  C         13.8170   21.1790   14.0740 C.2   185  SER185      0.2288
    107  O         15.0220   21.4120   14.0780 O.2   185  SER185     -0.2866
    108  CB        12.8080   20.4170   11.9340 C.3   185  SER185      0.2089
    109  OG        12.0430   20.7470   10.7900 O.3   185  SER185     -0.2183
    110  N         10.4590   23.2020   17.4600 N.3   203  VAL203     -0.1231
    111  CA        10.0530   23.4680   16.0770 C.3   203  VAL203      0.1692
    112  C          9.5960   22.1510   15.4460 C.2   203  VAL203      0.2593
    113  O         10.3990   21.2480   15.2370 O.2   203  VAL203     -0.2718
    114  CB        11.2240   24.0380   15.2490 C.3   203  VAL203      0.0266
    115  CG1       10.8370   24.0900   13.7780 C.3   203  VAL203      0.0020
    116  CG2       11.6050   25.4240   15.7640 C.3   203  VAL203      0.0020
    117  N          8.3040   22.0380   15.1450 N.am  204  SER204     -0.1938
    118  CA         7.7740   20.7910   14.5900 C.3   204  SER204      0.2055
    119  C          7.4390   20.8060   13.1020 C.2   204  SER204      0.2643
    120  O          8.1200   20.1630   12.2980 O.2   204  SER204     -0.2714
    121  CB         6.5360   20.3630   15.3850 C.3   204  SER204      0.2130
    122  OG         6.2060   19.0050   15.1460 O.3   204  SER204     -0.2179
    123  N          6.3850   21.5260   12.7370 N.am  205  TRP205     -0.1959
    124  CA         5.9650   21.6000   11.3430 C.3   205  TRP205      0.1771
    125  C          5.1820   22.8710   11.1150 C.2   205  TRP205      0.2620
    126  O          4.8680   23.5990   12.0610 O.2   205  TRP205     -0.2715
    127  CB         5.0730   20.4060   10.9800 C.3   205  TRP205      0.0590
    128  CG         3.9080   20.2360   11.9150 C.ar  205  TRP205      0.0006
    129  CD1        3.9500   19.7660   13.1940 C.ar  205  TRP205      0.0946
    130  CD2        2.5380   20.5760   11.6600 C.ar  205  TRP205      0.0152
    131  NE1        2.6970   19.7920   13.7550 N.ar  205  TRP205     -0.2442
    132  CE2        1.8090   20.2850   12.8360 C.ar  205  TRP205      0.0810
    133  CE3        1.8540   21.1010   10.5540 C.ar  205  TRP205      0.0012
    134  CZ2        0.4300   20.4990   12.9390 C.ar  205  TRP205      0.0191
    135  CZ3        0.4850   21.3150   10.6570 C.ar  205  TRP205      0.0001
    136  CH2       -0.2110   21.0130   11.8450 C.ar  205  TRP205      0.0015
    137  N          4.8630   23.1270    9.8500 N.am  206  GLY206     -0.1940
    138  CA         4.0990   24.3110    9.5080 C.3   206  GLY206      0.2014
    139  C          3.7210   24.3270    8.0470 C.2   206  GLY206      0.2639
    140  O          4.4130   23.7200    7.2300 O.2   206  GLY206     -0.2714
    141  N          2.6180   24.9960    7.7170 N.am  207  GLU207     -0.1963
    142  CA         2.1910   25.0970    6.3220 C.3   207  GLU207      0.1733
    143  C          2.9190   26.2690    5.6720 C.2   207  GLU207      0.2617
    144  O          2.4300   27.4050    5.6600 O.2   207  GLU207     -0.2715
    145  CB         0.6780   25.2950    6.2170 C.3   207  GLU207      0.0429
    146  CG        -0.1300   24.0840    6.6400 C.3   207  GLU207      0.1163
    147  CD        -1.5060   24.0460    5.9920 C.2   207  GLU207      0.3649
    148  OE1       -1.5950   23.6960    4.7940 O.co2 207  GLU207     -0.2457
    149  OE2       -2.4960   24.3750    6.6770 O.co2 207  GLU207     -0.2457
    150  N          4.1010   25.9780    5.1390 N.am  208  GLY208     -0.1940
    151  CA         4.8980   27.0100    4.5110 C.3   208  GLY208      0.2014
    152  C          5.6540   27.8050    5.5580 C.2   208  GLY208      0.2639
    153  O          5.8830   27.3360    6.6760 O.2   208  GLY208     -0.2714
    154  N          6.0450   29.0180    5.2010 N.am  209  CYS209     -0.1967
    155  CA         6.7810   29.8460    6.1300 C.3   209  CYS209      0.1712
    156  C          6.1800   31.2410    6.1680 C.2   209  CYS209      0.2296
    157  O          5.9510   31.8700    5.1310 O.2   209  CYS209     -0.2864
    158  CB         8.2660   29.8650    5.7300 C.3   209  CYS209      0.0983
    159  SG         9.0190   28.1960    5.8340 S.3   209  CYS209     -0.0798
    160  N          0.0700   29.5040   10.8730 N.3   215  TYR215     -0.1227
    161  CA         1.0190   29.6790   11.9560 C.3   215  TYR215      0.1736
    162  C          2.1730   28.6800   11.9510 C.2   215  TYR215      0.2596
    163  O          2.3750   27.9220   10.9860 O.2   215  TYR215     -0.2718
    164  CB         0.2810   29.5980   13.2850 C.3   215  TYR215      0.0548
    165  CG        -0.7720   30.6620   13.4480 C.ar  215  TYR215     -0.0200
    166  CD1       -0.4150   31.9890   13.6440 C.ar  215  TYR215     -0.0009
    167  CD2       -2.1300   30.3460   13.3950 C.ar  215  TYR215     -0.0009
    168  CE1       -1.3760   32.9770   13.7850 C.ar  215  TYR215      0.0417
    169  CE2       -3.1010   31.3330   13.5370 C.ar  215  TYR215      0.0417
    170  CZ        -2.7100   32.6440   13.7310 C.ar  215  TYR215      0.1957
    171  OH        -3.6440   33.6340   13.8770 O.3   215  TYR215     -0.2866
    172  N          2.9400   28.7030   13.0380 N.am  216  GLY216     -0.1942
    173  CA         4.0700   27.8090   13.1660 C.3   216  GLY216      0.2014
    174  C          3.7280   26.7680   14.1960 C.2   216  GLY216      0.2639
    175  O          3.3890   27.1140   15.3200 O.2   216  GLY216     -0.2714
    176  N          3.8180   25.4960   13.8360 N.am  217  ILE217     -0.1963
    177  CA         3.4680   24.4630   14.7950 C.3   217  ILE217      0.1727
    178  C          4.6540   23.9230   15.6220 C.2   217  ILE217      0.2616
    179  O          5.6780   23.4900   15.0800 O.2   217  ILE217     -0.2715
    180  CB         2.7330   23.2800   14.0880 C.3   217  ILE217      0.0290
    181  CG1        1.7650   23.8050   13.0150 C.3   217  ILE217      0.0022
    182  CG2        1.9450   22.4830   15.1200 C.3   217  ILE217      0.0023
    183  CD1        0.7380   24.7830   13.5340 C.3   217  ILE217      0.0001
    184  N          4.5020   23.9560   16.9450 N.am  218  TYR218     -0.1974
    185  CA         5.5400   23.4710   17.8440 C.3   218  TYR218      0.1639
    186  C          5.0290   22.3120   18.6890 C.2   218  TYR218      0.2290
    187  O          3.8300   22.1610   18.8880 O.2   218  TYR218     -0.2864
    188  CB         6.0280   24.5890   18.7710 C.3   218  TYR218      0.0560
    189  CG         6.6500   25.7600   18.0490 C.ar  218  TYR218     -0.0198
    190  CD1        5.8680   26.8120   17.5780 C.ar  218  TYR218     -0.0009
    191  CD2        8.0160   25.7980   17.8010 C.ar  218  TYR218     -0.0009
    192  CE1        6.4360   27.8740   16.8710 C.ar  218  TYR218      0.0417
    193  CE2        8.5910   26.8510   17.0960 C.ar  218  TYR218      0.0417
    194  CZ         7.7960   27.8800   16.6340 C.ar  218  TYR218      0.1957
    195  OH         8.3650   28.9010   15.9190 O.3   218  TYR218     -0.2866
@<TRIPOS>BOND
     1    50    51    2
     2    50    49    1
     3    53    52    1
     4    53    54    1
     5    52    49    1
     6   103   101   am
     7    49    48    1
     8   102   101    2
     9    54    56   ar
    10    54    55   ar
    11   101   100    1
    12   100    99    1
    13   151   150    1
    14   151   152    1
    15   148   147   ar
    16   157   156    2
    17   150   143   am
    18    99    96    1
    19   154   152   am
    20   154   155    1
    21    94   159    1
    22    94    93    1
    23   152   153    2
    24   144   143    2
    25   143   142    1
    26   158   159    1
    27   158   155    1
    28    67    65   ar
    29    67    66   ar
    30   147   146    1
    31   147   149   ar
    32   155   156    1
    33   145   142    1
    34   145   146    1
    35   142   141    1
    36    65    63   ar
    37    66    64   ar
    38    96    95    1
    39    96    97    1
    40    95    91   am
    41    93    90    1
    42    98    97    2
    43   140   139    2
    44   141   139   am
    45    63    62   ar
    46    64    62   ar
    47    47    46    1
    48    91    90    1
    49    91    92    2
    50    90    89    1
    51   139   138    1
    52    28    26   ar
    53    62    61    1
    54    16    15    1
    55    16    17    1
    56    15    12    1
    57    21    24    1
    58    21    20    1
    59    21    22    1
    60    23    22    2
    61    24    25    1
    62    44    46   ar
    63    44    42   ar
    64    46    45   ar
    65    14    13    2
    66    20    13   am
    67    89    86   am
    68    13    12    1
    69    22    29   am
    70    57    58    1
    71    26    25    1
    72    26    27   ar
    73   138   137    1
    74    79    78    2
    75    18    17    1
    76    18    19    1
    77    83    81   ar
    78    87    86    2
    79   137   125   am
    80    12    11    1
    81    61    58    1
    82    42    41   ar
    83    58    59    1
    84    86    85    1
    85    45    43   ar
    86     8    10   ar
    87     8     6   ar
    88    80    81    1
    89    80    77    1
    90   133   135   ar
    91   133   130   ar
    92    81    82   ar
    93   135   136   ar
    94     4     3    2
    95    10     9   ar
    96    78    77    1
    97    78    84   am
    98    29    30    1
    99    76    77    1
   100   109   108    1
   101   160   161    1
   102   127   124    1
   103   127   128    1
   104   163   162    2
   105   125   124    1
   106   125   126    2
   107    41    43   ar
   108    41    40    1
   109   124   123    1
   110    85    84    1
   111    85    88    1
   112    30    31    1
   113    30    33    1
   114    59    68   am
   115    59    60    2
   116    35    33    1
   117   130   128   ar
   118   130   132   ar
   119     6     5    1
   120     6     7   ar
   121   136   134   ar
   122   128   129   ar
   123     3     2    1
   124   108   105    1
   125   162   161    1
   126   162   172   am
   127   161   164    1
   128     9     7   ar
   129    68    69    1
   130     5     2    1
   131   104   105    1
   132    36    31   am
   133    36    37    1
   134    31    32    2
   135   120   119    2
   136    40    37    1
   137    33    34    1
   138     2     1    1
   139   123   119   am
   140   132   134   ar
   141   132   131   ar
   142   105   106    1
   143    73    75    1
   144    73    72    1
   145    37    38    1
   146   181   183    1
   147   181   180    1
   148   172   173    1
   149   119   118    1
   150   173   174    1
   151   129   131   ar
   152   164   165    1
   153   167   165   ar
   154   167   169   ar
   155    69    72    1
   156    69    70    1
   157   165   166   ar
   158   169   170   ar
   159   166   168   ar
   160   170   168   ar
   161   170   171    1
   162   115   114    1
   163    72    74    1
   164   176   174   am
   165   176   177    1
   166   106   107    2
   167   180   177    1
   168   180   182    1
   169   174   175    2
   170    70    71    2
   171    38    39    2
   172   118   117    1
   173   118   121    1
   174   177   178    1
   175   179   178    2
   176   117   112   am
   177   122   121    1
   178   113   112    2
   179   114   116    1
   180   114   111    1
   181   112   111    1
   182   178   184   am
   183   195   194    1
   184   111   110    1
   185   194   192   ar
   186   194   193   ar
   187   192   190   ar
   188   184   185    1
   189   193   191   ar
   190   190   189   ar
   191   191   189   ar
   192   185   186    1
   193   185   188    1
   194   189   188    1
   195   186   187    2
