@<TRIPOS>MOLECULE
tmp/1iqjA00.pdb
 201 201 0 0 0
SMALL
GASTEIGER

@<TRIPOS>ATOM
      1  N         10.6090   13.9020   14.0810 N.3    42  HIS42      -0.1241
      2  CA        10.6190   13.8780   12.6240 C.3    42  HIS42       0.1621
      3  C         11.9270   14.3120   11.9930 C.2    42  HIS42       0.2264
      4  O         12.0910   14.1860   10.7790 O.2    42  HIS42      -0.2867
      5  CB         9.4840   14.7260   12.0490 C.3    42  HIS42       0.0745
      6  CG         9.8410   16.1610   11.8480 C.ar   42  HIS42       0.0817
      7  ND1        9.7390   17.0970   12.8510 N.ar   42  HIS42      -0.2268
      8  CD2       10.3200   16.8180   10.7650 C.ar   42  HIS42       0.1154
      9  CE1       10.1380   18.2720   12.3940 C.ar   42  HIS42       0.1986
     10  NE2       10.4970   18.1310   11.1310 N.ar   42  HIS42      -0.2212
     11  N          4.5860   10.1710   11.2660 N.3    82  LYS82      -0.1231
     12  CA         4.8760   11.1780   10.2510 C.3    82  LYS82       0.1693
     13  C          3.5670   11.6510    9.6440 C.2    82  LYS82       0.2592
     14  O          3.4450   12.7910    9.1890 O.2    82  LYS82      -0.2718
     15  CB         5.7680   10.5830    9.1560 C.3    82  LYS82       0.0285
     16  CG         5.8090    9.0630    9.1390 C.3    82  LYS82       0.0035
     17  CD         6.6410    8.5510   10.3000 C.3    82  LYS82       0.0206
     18  CE         6.6900    7.0380   10.3400 C.3    82  LYS82       0.1093
     19  NZ         7.4790    6.5650   11.5170 N.3    82  LYS82      -0.1314
     20  N          2.5920   10.7470    9.6580 N.am   83  GLU83      -0.1966
     21  CA         1.2650   10.9840    9.1110 C.3    83  GLU83       0.1733
     22  C          0.4830   12.0880    9.8170 C.2    83  GLU83       0.2617
     23  O         -0.4810   12.6150    9.2670 O.2    83  GLU83      -0.2715
     24  CB         0.4650    9.6730    9.1260 C.3    83  GLU83       0.0429
     25  CG         0.4000    8.9620   10.4800 C.3    83  GLU83       0.1163
     26  CD         1.1850    7.6530   10.5120 C.2    83  GLU83       0.3649
     27  OE1        0.9980    6.8690   11.4680 O.co2  83  GLU83      -0.2457
     28  OE2        1.9900    7.4060    9.5900 O.co2  83  GLU83      -0.2457
     29  N          0.9060   12.4510   11.0210 N.am   84  THR84      -0.1937
     30  CA         0.2210   13.4890   11.7730 C.3    84  THR84       0.2028
     31  C          1.1590   14.3950   12.5560 C.2    84  THR84       0.2642
     32  O          0.7410   15.4340   13.0690 O.2    84  THR84      -0.2714
     33  CB        -0.7460   12.8770   12.7630 C.3    84  THR84       0.1808
     34  OG1       -0.0180   12.0360   13.6660 O.3    84  THR84      -0.2208
     35  CG2       -1.7960   12.0590   12.0410 C.3    84  THR84       0.0379
     36  N          2.4240   14.0050   12.6580 N.am   85  TYR85      -0.1973
     37  CA         3.3870   14.8050   13.4010 C.3    85  TYR85       0.1639
     38  C          2.9770   14.8700   14.8630 C.2    85  TYR85       0.2290
     39  O          3.1720   15.8860   15.5280 O.2    85  TYR85      -0.2864
     40  CB         3.4650   16.2250   12.8330 C.3    85  TYR85       0.0560
     41  CG         4.1990   16.3110   11.5190 C.ar   85  TYR85      -0.0198
     42  CD1        3.7570   15.5970   10.4050 C.ar   85  TYR85      -0.0009
     43  CD2        5.3520   17.0850   11.3930 C.ar   85  TYR85      -0.0009
     44  CE1        4.4450   15.6470    9.2000 C.ar   85  TYR85       0.0417
     45  CE2        6.0500   17.1420   10.1940 C.ar   85  TYR85       0.0417
     46  CZ         5.5920   16.4200    9.1020 C.ar   85  TYR85       0.1957
     47  OH         6.2860   16.4590    7.9140 O.3    85  TYR85      -0.2866
     48  N         -5.1250   21.1900    9.7940 N.3   162  PHE162     -0.1227
     49  CA        -4.8110   19.8800   10.3540 C.3   162  PHE162      0.1736
     50  C         -5.1960   19.7940   11.8210 C.2   162  PHE162      0.2595
     51  O         -5.3320   20.8130   12.4970 O.2   162  PHE162     -0.2718
     52  CB        -3.3240   19.6080   10.2170 C.3   162  PHE162      0.0547
     53  CG        -2.8730   19.4530    8.8100 C.ar  162  PHE162     -0.0202
     54  CD1       -3.2630   18.3500    8.0650 C.ar  162  PHE162     -0.0042
     55  CD2       -2.0430   20.4010    8.2320 C.ar  162  PHE162     -0.0042
     56  CE1       -2.8320   18.1910    6.7640 C.ar  162  PHE162     -0.0003
     57  CE2       -1.6040   20.2530    6.9270 C.ar  162  PHE162     -0.0003
     58  CZ        -1.9980   19.1440    6.1900 C.ar  162  PHE162     -0.0000
     59  N         -5.3490   18.5720   12.3190 N.am  163  ILE163     -0.1980
     60  CA        -5.7410   18.3690   13.7060 C.3   163  ILE163      0.1595
     61  C         -4.6240   18.7150   14.6830 C.2   163  ILE163      0.2287
     62  O         -3.6060   18.0180   14.7530 O.2   163  ILE163     -0.2864
     63  CB        -6.1810   16.9020   13.9630 C.3   163  ILE163      0.0276
     64  CG1       -7.2340   16.4780   12.9290 C.3   163  ILE163      0.0022
     65  CG2       -6.7240   16.7620   15.3870 C.3   163  ILE163      0.0022
     66  CD1       -8.5260   17.2950   12.9510 C.3   163  ILE163      0.0001
     67  N          8.2890   33.8850   11.3550 N.3   179  ASP179     -0.1225
     68  CA         7.9670   32.5170   11.7420 C.3   179  ASP179      0.1805
     69  C          9.1050   31.5940   11.3130 C.2   179  ASP179      0.2598
     70  O          9.7990   31.8800   10.3410 O.2   179  ASP179     -0.2718
     71  CB         6.6700   32.0960   11.0590 C.3   179  ASP179      0.1424
     72  CG         6.3900   30.6350   11.2020 C.2   179  ASP179      0.3668
     73  OD1        6.4670   30.1100   12.3380 O.co2 179  ASP179     -0.2456
     74  OD2        6.0790   30.0180   10.1680 O.co2 179  ASP179     -0.2456
     75  N          9.2930   30.4930   12.0390 N.am  180  ALA180     -0.1966
     76  CA        10.3410   29.5200   11.7350 C.3   180  ALA180      0.1728
     77  C         10.1790   29.0280   10.3100 C.2   180  ALA180      0.2616
     78  O          9.1840   29.3380    9.6620 O.2   180  ALA180     -0.2715
     79  CB        10.2540   28.3550   12.6920 C.3   180  ALA180      0.0334
     80  N         11.1400   28.2530    9.8160 N.am  181  CYS181     -0.1954
     81  CA        11.0410   27.7670    8.4490 C.3   181  CYS181      0.1843
     82  C         11.8280   26.4850    8.1730 C.2   181  CYS181      0.2625
     83  O         12.1090   25.7110    9.0890 O.2   181  CYS181     -0.2714
     84  CB        11.4880   28.8760    7.5080 C.3   181  CYS181      0.0997
     85  SG        11.0240   28.6090    5.7830 S.3   181  CYS181     -0.0797
     86  N         12.1720   26.2560    6.9080 N.am  182  GLN182     -0.1963
     87  CA        12.9190   25.0590    6.5270 C.3   182  GLN182      0.1733
     88  C         14.1400   24.8250    7.4170 C.2   182  GLN182      0.2616
     89  O         14.8320   25.7660    7.8100 O.2   182  GLN182     -0.2715
     90  CB        13.4250   25.1500    5.0870 C.3   182  GLN182      0.0408
     91  CG        12.4130   25.3900    3.9780 C.3   182  GLN182      0.0908
     92  CD        13.0710   25.3620    2.5880 C.2   182  GLN182      0.2608
     93  OE1       13.6600   24.3540    2.1860 O.2   182  GLN182     -0.2717
     94  NE2       12.9800   26.4730    1.8620 N.am  182  GLN182     -0.0878
     95  N         14.4070   23.5570    7.7080 N.am  183  GLY183     -0.1955
     96  CA        15.5550   23.2000    8.5200 C.3   183  GLY183      0.1869
     97  C         15.5850   23.8120    9.9060 C.2   183  GLY183      0.2309
     98  O         16.6430   23.8340   10.5450 O.2   183  GLY183     -0.2863
     99  N         13.2110   22.8410   12.2980 N.3   185  SER185     -0.1217
    100  CA        12.5980   21.8500   13.1870 C.3   185  SER185      0.1889
    101  C         13.5550   21.4570   14.3070 C.2   185  SER185      0.2288
    102  O         14.7540   21.7110   14.2110 O.2   185  SER185     -0.2866
    103  CB        12.2230   20.5870   12.4040 C.3   185  SER185      0.2089
    104  OG        11.3620   20.8690   11.3180 O.3   185  SER185     -0.2183
    105  N         10.4960   22.9450   17.7530 N.3   203  VAL203     -0.1231
    106  CA        10.0620   23.4190   16.4390 C.3   203  VAL203      0.1692
    107  C          9.5190   22.2170   15.6780 C.2   203  VAL203      0.2593
    108  O         10.2700   21.3230   15.2930 O.2   203  VAL203     -0.2718
    109  CB        11.2220   24.0340   15.6330 C.3   203  VAL203      0.0266
    110  CG1       10.7400   24.3960   14.2460 C.3   203  VAL203      0.0020
    111  CG2       11.7410   25.2720   16.3250 C.3   203  VAL203      0.0020
    112  N          8.2130   22.1930   15.4560 N.am  204  SER204     -0.1938
    113  CA         7.6310   21.0550   14.7770 C.3   204  SER204      0.2055
    114  C          7.1960   21.2860   13.3420 C.2   204  SER204      0.2643
    115  O          7.8060   20.7360   12.4250 O.2   204  SER204     -0.2714
    116  CB         6.4580   20.5150   15.5860 C.3   204  SER204      0.2130
    117  OG         6.1990   19.1690   15.2340 O.3   204  SER204     -0.2179
    118  N          6.1470   22.0760   13.1250 N.am  205  TRP205     -0.1959
    119  CA         5.7010   22.2910   11.7560 C.3   205  TRP205      0.1771
    120  C          4.8520   23.5060   11.5120 C.2   205  TRP205      0.2620
    121  O          4.6270   24.3220   12.3990 O.2   205  TRP205     -0.2715
    122  CB         4.9370   21.0690   11.2470 C.3   205  TRP205      0.0590
    123  CG         3.8000   20.6550   12.1240 C.ar  205  TRP205      0.0006
    124  CD1        3.8750   19.8970   13.2520 C.ar  205  TRP205      0.0946
    125  CD2        2.4160   21.0050   11.9660 C.ar  205  TRP205      0.0152
    126  NE1        2.6260   19.7470   13.8140 N.ar  205  TRP205     -0.2442
    127  CE2        1.7110   20.4170   13.0460 C.ar  205  TRP205      0.0810
    128  CE3        1.7010   21.7560   11.0170 C.ar  205  TRP205      0.0012
    129  CZ2        0.3270   20.5580   13.2050 C.ar  205  TRP205      0.0191
    130  CZ3        0.3350   21.8950   11.1730 C.ar  205  TRP205      0.0001
    131  CH2       -0.3400   21.2970   12.2620 C.ar  205  TRP205      0.0015
    132  N          4.3790   23.6020   10.2770 N.am  206  GLY206     -0.1940
    133  CA         3.5380   24.7050    9.8590 C.3   206  GLY206      0.2014
    134  C          3.2230   24.5670    8.3830 C.2   206  GLY206      0.2639
    135  O          3.9070   23.8350    7.6720 O.2   206  GLY206     -0.2714
    136  N          2.1880   25.2550    7.9130 N.am  207  GLU207     -0.1963
    137  CA         1.8290   25.1850    6.4990 C.3   207  GLU207      0.1733
    138  C          2.5580   26.3040    5.7730 C.2   207  GLU207      0.2617
    139  O          1.9870   27.3630    5.5140 O.2   207  GLU207     -0.2715
    140  CB         0.3120   25.3150    6.3250 C.3   207  GLU207      0.0429
    141  CG        -0.4700   24.1860    7.0000 C.3   207  GLU207      0.1163
    142  CD        -1.9590   24.4820    7.1580 C.2   207  GLU207      0.3649
    143  OE1       -2.6760   24.5330    6.1270 O.co2 207  GLU207     -0.2457
    144  OE2       -2.4050   24.6640    8.3200 O.co2 207  GLU207     -0.2457
    145  N          3.8300   26.0520    5.4600 N.am  208  GLY208     -0.1940
    146  CA         4.6600   27.0350    4.7860 C.3   208  GLY208      0.2014
    147  C          5.4670   27.8580    5.7770 C.2   208  GLY208      0.2639
    148  O          5.6310   27.4740    6.9330 O.2   208  GLY208     -0.2714
    149  N          5.9740   28.9970    5.3310 N.am  209  CYS209     -0.1967
    150  CA         6.7590   29.8560    6.2000 C.3   209  CYS209      0.1712
    151  C          6.2180   31.2770    6.1250 C.2   209  CYS209      0.2296
    152  O          6.2760   31.9240    5.0750 O.2   209  CYS209     -0.2864
    153  CB         8.2300   29.8410    5.7700 C.3   209  CYS209      0.0983
    154  SG         9.0390   28.2100    5.8820 S.3   209  CYS209     -0.0798
    155  N          3.2770   32.2010    6.0460 N.3   211  ARG211     -0.1245
    156  CA         2.0300   32.2760    5.2900 C.3   211  ARG211      0.1563
    157  C          0.9220   32.9670    6.0780 C.2   211  ARG211      0.2260
    158  O          0.6160   32.5930    7.2160 O.2   211  ARG211     -0.2867
    159  CB         1.5590   30.8810    4.8920 C.3   211  ARG211      0.0307
    160  CG         2.4120   30.2070    3.8510 C.3   211  ARG211      0.0489
    161  CD         1.7100   28.9730    3.3170 C.3   211  ARG211      0.2205
    162  NE         2.4040   28.3750    2.1810 N.pl3 211  ARG211     -0.0865
    163  CZ         1.8730   27.4300    1.4150 C.cat 211  ARG211      0.5346
    164  NH1        0.6460   26.9900    1.6750 N.pl3 211  ARG211      0.1354
    165  NH2        2.5600   26.9250    0.3970 N.pl3 211  ARG211      0.1354
    166  N         -0.1990   29.7750   11.0320 N.3   215  TYR215     -0.1227
    167  CA         0.7640   29.9960   12.1080 C.3   215  TYR215      0.1736
    168  C          1.8320   28.9110   12.0790 C.2   215  TYR215      0.2596
    169  O          1.9640   28.1690   11.0970 O.2   215  TYR215     -0.2718
    170  CB         0.0940   29.9540   13.4790 C.3   215  TYR215      0.0548
    171  CG        -0.8500   31.0810   13.7680 C.ar  215  TYR215     -0.0200
    172  CD1       -0.3890   32.3880   13.8880 C.ar  215  TYR215     -0.0009
    173  CD2       -2.2040   30.8420   13.9380 C.ar  215  TYR215     -0.0009
    174  CE1       -1.2570   33.4330   14.1730 C.ar  215  TYR215      0.0417
    175  CE2       -3.0790   31.8700   14.2210 C.ar  215  TYR215      0.0417
    176  CZ        -2.6020   33.1640   14.3380 C.ar  215  TYR215      0.1957
    177  OH        -3.4800   34.1840   14.6270 O.3   215  TYR215     -0.2866
    178  N          2.5800   28.8220   13.1790 N.am  216  GLY216     -0.1942
    179  CA         3.6380   27.8350   13.3060 C.3   216  GLY216      0.2014
    180  C          3.4010   26.9270   14.4980 C.2   216  GLY216      0.2639
    181  O          3.3630   27.3840   15.6410 O.2   216  GLY216     -0.2714
    182  N          3.2630   25.6330   14.2310 N.am  217  ILE217     -0.1963
    183  CA         2.9920   24.6590   15.2800 C.3   217  ILE217      0.1727
    184  C          4.2650   24.1700   15.9880 C.2   217  ILE217      0.2616
    185  O          5.2440   23.7790   15.3430 O.2   217  ILE217     -0.2715
    186  CB         2.1990   23.4240   14.6970 C.3   217  ILE217      0.0290
    187  CG1        1.4000   23.8430   13.4520 C.3   217  ILE217      0.0022
    188  CG2        1.2500   22.8330   15.7690 C.3   217  ILE217      0.0023
    189  CD1        0.4180   24.9610   13.6880 C.3   217  ILE217      0.0001
    190  N          4.2300   24.1990   17.3220 N.am  218  TYR218     -0.1974
    191  CA         5.3450   23.7560   18.1630 C.3   218  TYR218      0.1639
    192  C          4.9580   22.5670   19.0290 C.2   218  TYR218      0.2290
    193  O          3.8300   22.4820   19.5160 O.2   218  TYR218     -0.2864
    194  CB         5.8180   24.8740   19.1020 C.3   218  TYR218      0.0560
    195  CG         6.3220   26.0940   18.3890 C.ar  218  TYR218     -0.0198
    196  CD1        5.4340   27.0430   17.8970 C.ar  218  TYR218     -0.0009
    197  CD2        7.6860   26.2820   18.1590 C.ar  218  TYR218     -0.0009
    198  CE1        5.8820   28.1490   17.1870 C.ar  218  TYR218      0.0417
    199  CE2        8.1480   27.3900   17.4460 C.ar  218  TYR218      0.0417
    200  CZ         7.2350   28.3150   16.9610 C.ar  218  TYR218      0.1957
    201  OH         7.6480   29.3820   16.2040 O.3   218  TYR218     -0.2866
@<TRIPOS>BOND
     1   165   163    1
     2   163   164    1
     3   163   162    2
     4    94    92   am
     5   162   161    1
     6    93    92    2
     7    92    91    1
     8   161   160    1
     9   160   159    1
    10    91    90    1
    11   146   145    1
    12   146   147    1
    13   159   156    1
    14   152   151    2
    15    90    87    1
    16   156   155    1
    17   156   157    1
    18   149   147   am
    19   149   150    1
    20   145   138   am
    21   139   138    2
    22   153   154    1
    23   153   150    1
    24   138   137    1
    25   147   148    2
    26    85   154    1
    27    85    84    1
    28   157   158    2
    29   151   150    1
    30   143   142   ar
    31    58    56   ar
    32    58    57   ar
    33   140   137    1
    34   140   141    1
    35   137   136    1
    36    87    86    1
    37    87    88    1
    38    56    54   ar
    39    86    82   am
    40    57    55   ar
    41   141   142    1
    42   142   144   ar
    43    88    95   am
    44    88    89    2
    45    84    81    1
    46   135   134    2
    47    95    96    1
    48   136   134   am
    49    47    46    1
    50    54    53   ar
    51    82    81    1
    52    82    83    2
    53    55    53   ar
    54   134   133    1
    55    81    80    1
    56    96    97    1
    57    53    52    1
    58    46    44   ar
    59    46    45   ar
    60    21    24    1
    61    21    20    1
    62    21    22    1
    63    24    25    1
    64    16    15    1
    65    16    17    1
    66    15    12    1
    67    14    13    2
    68    44    42   ar
    69    23    22    2
    70    28    26   ar
    71    13    20   am
    72    13    12    1
    73    78    77    2
    74    48    49    1
    75    80    77   am
    76    22    29   am
    77   133   132    1
    78    97    98    2
    79    74    72   ar
    80    45    43   ar
    81    52    49    1
    82    12    11    1
    83   132   120   am
    84    17    18    1
    85    77    76    1
    86    18    19    1
    87    70    69    2
    88    49    50    1
    89    42    41   ar
    90    25    26    1
    91    26    27   ar
    92     8    10   ar
    93     8     6   ar
    94     4     3    2
    95   128   130   ar
    96   128   125   ar
    97    29    30    1
    98   166   167    1
    99    71    72    1
   100    71    68    1
   101   169   168    2
   102    10     9   ar
   103   130   131   ar
   104    72    73   ar
   105   122   119    1
   106   122   123    1
   107    69    68    1
   108    69    75   am
   109   104   103    1
   110    67    68    1
   111    43    41   ar
   112   120   119    1
   113   120   121    2
   114    41    40    1
   115    76    75    1
   116    76    79    1
   117   119   118    1
   118    30    31    1
   119    30    33    1
   120    50    59   am
   121    50    51    2
   122     6     5    1
   123     6     7   ar
   124   125   123   ar
   125   125   127   ar
   126     3     2    1
   127    35    33    1
   128     5     2    1
   129   168   167    1
   130   168   178   am
   131   167   170    1
   132   123   124   ar
   133   131   129   ar
   134    99   100    1
   135    59    60    1
   136     9     7   ar
   137   103   100    1
   138   115   114    2
   139    31    36   am
   140    31    32    2
   141     2     1    1
   142    36    37    1
   143    33    34    1
   144    40    37    1
   145    64    66    1
   146    64    63    1
   147   127   129   ar
   148   127   126   ar
   149   118   114   am
   150   178   179    1
   151   100   101    1
   152   124   126   ar
   153   179   180    1
   154   114   113    1
   155    37    38    1
   156   187   189    1
   157   187   186    1
   158   170   171    1
   159    60    63    1
   160    60    61    1
   161   171   172   ar
   162   171   173   ar
   163   172   174   ar
   164   173   175   ar
   165    63    65    1
   166   174   176   ar
   167   102   101    2
   168   175   176   ar
   169   182   180   am
   170   182   183    1
   171   110   109    1
   172   176   177    1
   173   180   181    2
   174    61    62    2
   175   186   183    1
   176   186   188    1
   177   113   112    1
   178   113   116    1
   179    38    39    2
   180   117   116    1
   181   183   184    1
   182   108   107    2
   183   185   184    2
   184   112   107   am
   185   109   111    1
   186   109   106    1
   187   107   106    1
   188   184   190   am
   189   201   200    1
   190   106   105    1
   191   200   198   ar
   192   200   199   ar
   193   198   196   ar
   194   190   191    1
   195   199   197   ar
   196   196   195   ar
   197   197   195   ar
   198   191   192    1
   199   191   194    1
   200   195   194    1
   201   192   193    2
