@<TRIPOS>MOLECULE
tmp/1iqkA00.pdb
 208 206 0 0 0
SMALL
GASTEIGER

@<TRIPOS>ATOM
      1  N         10.5590   14.1320   13.8390 N.3    42  HIS42      -0.1241
      2  CA        10.6110   13.9450   12.3960 C.3    42  HIS42       0.1621
      3  C         11.9500   14.3240   11.7760 C.2    42  HIS42       0.2264
      4  O         12.1960   14.0190   10.6110 O.2    42  HIS42      -0.2867
      5  CB         9.4950   14.7300   11.6980 C.3    42  HIS42       0.0745
      6  CG         9.7600   16.1970   11.5770 C.ar   42  HIS42       0.0817
      7  ND1        9.7090   17.0560   12.6530 N.ar   42  HIS42      -0.2268
      8  CD2       10.0750   16.9600   10.5030 C.ar   42  HIS42       0.1154
      9  CE1        9.9820   18.2840   12.2460 C.ar   42  HIS42       0.1986
     10  NE2       10.2070   18.2540   10.9460 N.ar   42  HIS42      -0.2212
     11  N          2.7000   10.8210    9.3790 N.3    83  GLU83      -0.1231
     12  CA         1.4700   11.1970    8.6880 C.3    83  GLU83       0.1699
     13  C          0.7410   12.3640    9.3350 C.2    83  GLU83       0.2593
     14  O          0.1240   13.1630    8.6420 O.2    83  GLU83      -0.2718
     15  CB         0.5290    9.9850    8.5890 C.3    83  GLU83       0.0402
     16  CG         0.5630    9.0610    9.8100 C.3    83  GLU83       0.1161
     17  CD         1.7460    8.0790    9.8080 C.2    83  GLU83       0.3649
     18  OE1        2.0940    7.5590   10.8970 O.co2  83  GLU83      -0.2457
     19  OE2        2.3140    7.8160    8.7200 O.co2  83  GLU83      -0.2457
     20  N          0.8240   12.4790   10.6540 N.am   84  THR84      -0.1939
     21  CA         0.1390   13.5620   11.3360 C.3    84  THR84       0.2028
     22  C          1.0370   14.5010   12.1170 C.2    84  THR84       0.2642
     23  O          0.6150   15.5890   12.4790 O.2    84  THR84      -0.2714
     24  CB        -0.9340   13.0270   12.2890 C.3    84  THR84       0.1808
     25  OG1       -0.3210   12.2010   13.2840 O.3    84  THR84      -0.2208
     26  CG2       -1.9650   12.2150   11.5220 C.3    84  THR84       0.0379
     27  N          2.2710   14.0910   12.3830 N.am   85  TYR85      -0.1973
     28  CA         3.2030   14.9350   13.1280 C.3    85  TYR85       0.1639
     29  C          2.8130   15.0290   14.5840 C.2    85  TYR85       0.2290
     30  O          3.1010   16.0310   15.2320 O.2    85  TYR85      -0.2864
     31  CB         3.2320   16.3550   12.5650 C.3    85  TYR85       0.0560
     32  CG         4.1440   16.5870   11.3840 C.ar   85  TYR85      -0.0198
     33  CD1        5.4530   16.9990   11.5680 C.ar   85  TYR85      -0.0009
     34  CD2        3.6670   16.4880   10.0830 C.ar   85  TYR85      -0.0009
     35  CE1        6.2610   17.3230   10.4800 C.ar   85  TYR85       0.0417
     36  CE2        4.4630   16.8070    8.9950 C.ar   85  TYR85       0.0417
     37  CZ         5.7540   17.2300    9.1970 C.ar   85  TYR85       0.1957
     38  OH         6.5280   17.6020    8.1190 O.3    85  TYR85      -0.2866
     39  N         16.0000   28.4850    6.6650 N.3   132  ARG132     -0.1245
     40  CA        15.5700   29.3840    5.6020 C.3   132  ARG132      0.1563
     41  C         14.9930   30.6960    6.1160 C.2   132  ARG132      0.2260
     42  O         14.1840   30.7160    7.0490 O.2   132  ARG132     -0.2867
     43  CB        14.5380   28.6840    4.7090 C.3   132  ARG132      0.0307
     44  CG        15.1480   27.9180    3.5480 C.3   132  ARG132      0.0489
     45  CD        14.5000   26.5670    3.3620 C.3   132  ARG132      0.2205
     46  NE        13.5220   26.5230    2.2790 N.pl3 132  ARG132     -0.0865
     47  CZ        13.7790   26.0980    1.0420 C.cat 132  ARG132      0.5346
     48  NH1       12.8140   26.0970    0.1290 N.pl3 132  ARG132      0.1354
     49  NH2       14.9930   25.6690    0.7130 N.pl3 132  ARG132      0.1354
     50  N         10.5260   31.5970    2.4320 N.3   135  GLU135     -0.1245
     51  CA         9.8620   30.3360    2.1130 C.3   135  GLU135      0.1567
     52  C         10.5740   29.5480    1.0090 C.2   135  GLU135      0.2260
     53  O         10.7930   28.3470    1.1440 O.2   135  GLU135     -0.2867
     54  CB         8.3990   30.5920    1.7200 C.3   135  GLU135      0.0388
     55  CG         7.4390   29.4590    2.0820 C.3   135  GLU135      0.1160
     56  CD         5.9830   29.7890    1.7720 C.2   135  GLU135      0.3649
     57  OE1        5.4900   30.8490    2.2230 O.co2 135  GLU135     -0.2457
     58  OE2        5.3270   28.9820    1.0800 O.co2 135  GLU135     -0.2457
     59  N         -4.9910   21.4050    9.2210 N.3   162  PHE162     -0.1227
     60  CA        -4.7410   20.0990    9.8100 C.3   162  PHE162      0.1736
     61  C         -5.0670   20.1690   11.3010 C.2   162  PHE162      0.2595
     62  O         -5.2710   21.2550   11.8360 O.2   162  PHE162     -0.2718
     63  CB        -3.2890   19.7240    9.5720 C.3   162  PHE162      0.0547
     64  CG        -2.9480   19.5730    8.1270 C.ar  162  PHE162     -0.0202
     65  CD1       -3.0780   18.3520    7.4960 C.ar  162  PHE162     -0.0042
     66  CD2       -2.5350   20.6680    7.3820 C.ar  162  PHE162     -0.0042
     67  CE1       -2.8030   18.2180    6.1410 C.ar  162  PHE162     -0.0003
     68  CE2       -2.2550   20.5500    6.0160 C.ar  162  PHE162     -0.0003
     69  CZ        -2.3900   19.3230    5.3970 C.ar  162  PHE162     -0.0000
     70  N         -5.1090   19.0290   11.9790 N.am  163  ILE163     -0.1980
     71  CA        -5.4860   19.0210   13.3910 C.3   163  ILE163      0.1595
     72  C         -4.4080   19.2760   14.4520 C.2   163  ILE163      0.2287
     73  O         -3.4890   18.4790   14.6200 O.2   163  ILE163     -0.2864
     74  CB        -6.2270   17.7040   13.7170 C.3   163  ILE163      0.0276
     75  CG1       -7.4580   17.5890   12.8080 C.3   163  ILE163      0.0022
     76  CG2       -6.6290   17.6720   15.1730 C.3   163  ILE163      0.0022
     77  CD1       -8.4200   16.4430   13.1220 C.3   163  ILE163      0.0001
     78  N          8.3260   33.9590   10.9150 N.3   179  ASP179     -0.1225
     79  CA         8.0190   32.5740   11.2410 C.3   179  ASP179      0.1805
     80  C          9.3290   31.7890   11.2310 C.2   179  ASP179      0.2598
     81  O         10.4060   32.3490   11.0210 O.2   179  ASP179     -0.2718
     82  CB         7.0900   31.9910   10.1790 C.3   179  ASP179      0.1424
     83  CG         6.1050   30.9990   10.7470 C.2   179  ASP179      0.3668
     84  OD1        6.4340   30.3590   11.7720 O.co2 179  ASP179     -0.2456
     85  OD2        5.0050   30.8530   10.1620 O.co2 179  ASP179     -0.2456
     86  N          9.2430   30.4920   11.4720 N.am  180  ALA180     -0.1966
     87  CA        10.4330   29.6650   11.4320 C.3   180  ALA180      0.1728
     88  C         10.4120   29.1700   10.0000 C.2   180  ALA180      0.2616
     89  O          9.6870   29.7090    9.1690 O.2   180  ALA180     -0.2715
     90  CB        10.3040   28.4990   12.3990 C.3   180  ALA180      0.0334
     91  N         11.1990   28.1540    9.6950 N.am  181  CYS181     -0.1954
     92  CA        11.1760   27.6180    8.3490 C.3   181  CYS181      0.1843
     93  C         12.0950   26.4110    8.2220 C.2   181  CYS181      0.2625
     94  O         12.7340   25.9950    9.1930 O.2   181  CYS181     -0.2714
     95  CB        11.5590   28.7030    7.3460 C.3   181  CYS181      0.0997
     96  SG        11.0170   28.3200    5.6550 S.3   181  CYS181     -0.0797
     97  N         12.1410   25.8370    7.0280 N.am  182  GLN182     -0.1977
     98  CA        12.9780   24.6790    6.7740 C.3   182  GLN182      0.1601
     99  C         14.3350   24.7680    7.4950 C.2   182  GLN182      0.2287
    100  O         14.9790   25.8230    7.5030 O.2   182  GLN182     -0.2864
    101  CB        13.1780   24.5460    5.2680 C.3   182  GLN182      0.0394
    102  CG        14.1030   23.4370    4.8380 C.3   182  GLN182      0.0908
    103  CD        14.3570   23.4560    3.3450 C.2   182  GLN182      0.2608
    104  OE1       13.4410   23.2460    2.5410 O.2   182  GLN182     -0.2717
    105  NE2       15.6060   23.7200    2.9620 N.am  182  GLN182     -0.0878
    106  N         13.4640   23.0050   12.2620 N.3   185  SER185     -0.1217
    107  CA        12.7730   21.9470   12.9940 C.3   185  SER185      0.1889
    108  C         13.6360   21.4980   14.1820 C.2   185  SER185      0.2288
    109  O         14.8610   21.5460   14.1130 O.2   185  SER185     -0.2866
    110  CB        12.5010   20.7520   12.0680 C.3   185  SER185      0.2089
    111  OG        11.8500   21.1480   10.8730 O.3   185  SER185     -0.2183
    112  N         10.2720   23.4120   17.6390 N.3   203  VAL203     -0.1231
    113  CA         9.8640   23.7420   16.2780 C.3   203  VAL203      0.1692
    114  C          9.3680   22.4750   15.5660 C.2   203  VAL203      0.2593
    115  O         10.1620   21.6250   15.1690 O.2   203  VAL203     -0.2718
    116  CB        11.0470   24.3650   15.5030 C.3   203  VAL203      0.0266
    117  CG1       10.7330   24.4510   14.0380 C.3   203  VAL203      0.0020
    118  CG2       11.3420   25.7480   16.0450 C.3   203  VAL203      0.0020
    119  N          8.0490   22.3570   15.4170 N.am  204  SER204     -0.1938
    120  CA         7.4350   21.1860   14.7870 C.3   204  SER204      0.2055
    121  C          7.1060   21.3920   13.3130 C.2   204  SER204      0.2643
    122  O          7.9390   21.1290   12.4440 O.2   204  SER204     -0.2714
    123  CB         6.1590   20.7840   15.5470 C.3   204  SER204      0.2130
    124  OG         5.6630   19.5110   15.1440 O.3   204  SER204     -0.2179
    125  N          5.8940   21.8600   13.0240 N.am  205  TRP205     -0.1959
    126  CA         5.4930   22.0620   11.6360 C.3   205  TRP205      0.1771
    127  C          4.7750   23.3730   11.3530 C.2   205  TRP205      0.2620
    128  O          4.4820   24.1610   12.2570 O.2   205  TRP205     -0.2715
    129  CB         4.5970   20.9130   11.1780 C.3   205  TRP205      0.0590
    130  CG         3.4070   20.7440   12.0440 C.ar  205  TRP205      0.0006
    131  CD1        3.3830   20.2240   13.3040 C.ar  205  TRP205      0.0946
    132  CD2        2.0580   21.1320   11.7410 C.ar  205  TRP205      0.0152
    133  NE1        2.1010   20.2630   13.8090 N.ar  205  TRP205     -0.2442
    134  CE2        1.2690   20.8150   12.8700 C.ar  205  TRP205      0.0810
    135  CE3        1.4400   21.7160   10.6270 C.ar  205  TRP205      0.0012
    136  CZ2       -0.1040   21.0610   12.9170 C.ar  205  TRP205      0.0191
    137  CZ3        0.0770   21.9600   10.6750 C.ar  205  TRP205      0.0001
    138  CH2       -0.6790   21.6320   11.8130 C.ar  205  TRP205      0.0015
    139  N          4.4890   23.5810   10.0730 N.am  206  GLY206     -0.1940
    140  CA         3.7960   24.7750    9.6390 C.3   206  GLY206      0.2014
    141  C          3.4570   24.6830    8.1680 C.2   206  GLY206      0.2639
    142  O          4.0890   23.9250    7.4310 O.2   206  GLY206     -0.2714
    143  N          2.4510   25.4380    7.7370 N.am  207  GLU207     -0.1963
    144  CA         2.0630   25.4420    6.3320 C.3   207  GLU207      0.1733
    145  C          2.7440   26.6310    5.6660 C.2   207  GLU207      0.2617
    146  O          2.3070   27.7740    5.8100 O.2   207  GLU207     -0.2715
    147  CB         0.5490   25.5530    6.1900 C.3   207  GLU207      0.0429
    148  CG        -0.2080   24.4140    6.8330 C.3   207  GLU207      0.1163
    149  CD        -1.7080   24.5450    6.6580 C.2   207  GLU207      0.3649
    150  OE1       -2.1740   24.5020    5.4960 O.co2 207  GLU207     -0.2457
    151  OE2       -2.4170   24.6940    7.6780 O.co2 207  GLU207     -0.2457
    152  N          3.8200   26.3440    4.9370 N.am  208  GLY208     -0.1940
    153  CA         4.5820   27.3920    4.2860 C.3   208  GLY208      0.2014
    154  C          5.4780   28.0220    5.3360 C.2   208  GLY208      0.2639
    155  O          5.7190   27.4360    6.3930 O.2   208  GLY208     -0.2714
    156  N          5.9840   29.2140    5.0630 N.am  209  CYS209     -0.1967
    157  CA         6.8390   29.8780    6.0310 C.3   209  CYS209      0.1712
    158  C          6.4290   31.3370    6.1810 C.2   209  CYS209      0.2296
    159  O          6.8160   32.1910    5.3740 O.2   209  CYS209     -0.2864
    160  CB         8.3080   29.7620    5.6090 C.3   209  CYS209      0.0983
    161  SG         9.0070   28.0920    5.8440 S.3   209  CYS209     -0.0798
    162  N          3.2630   32.3920    6.0860 N.3   211  ARG211     -0.1245
    163  CA         2.1080   32.6570    5.2250 C.3   211  ARG211      0.1563
    164  C          1.0080   33.4240    5.9430 C.2   211  ARG211      0.2260
    165  O          0.7450   33.1980    7.1280 O.2   211  ARG211     -0.2867
    166  CB         1.5130   31.3550    4.6980 C.3   211  ARG211      0.0307
    167  CG         2.3630   30.6260    3.6890 C.3   211  ARG211      0.0489
    168  CD         1.6210   29.4000    3.1830 C.3   211  ARG211      0.2205
    169  NE         2.4340   28.5960    2.2790 N.pl3 211  ARG211     -0.0865
    170  CZ         2.0340   27.4520    1.7400 C.cat 211  ARG211      0.5346
    171  NH1        0.8260   26.9800    2.0140 N.pl3 211  ARG211      0.1354
    172  NH2        2.8450   26.7750    0.9390 N.pl3 211  ARG211      0.1354
    173  N         -0.1580   30.0270   10.9270 N.3   215  TYR215     -0.1227
    174  CA         0.6850   30.1350   12.1140 C.3   215  TYR215      0.1736
    175  C          1.8090   29.1050   12.1810 C.2   215  TYR215      0.2596
    176  O          2.0210   28.3300   11.2430 O.2   215  TYR215     -0.2718
    177  CB        -0.1760   30.0210   13.3730 C.3   215  TYR215      0.0548
    178  CG        -1.1590   31.1530   13.5300 C.ar  215  TYR215     -0.0200
    179  CD1       -0.7170   32.4510   13.7640 C.ar  215  TYR215     -0.0009
    180  CD2       -2.5310   30.9340   13.4290 C.ar  215  TYR215     -0.0009
    181  CE1       -1.6100   33.5000   13.8910 C.ar  215  TYR215      0.0417
    182  CE2       -3.4340   31.9810   13.5580 C.ar  215  TYR215      0.0417
    183  CZ        -2.9630   33.2600   13.7900 C.ar  215  TYR215      0.1957
    184  OH        -3.8400   34.3060   13.9310 O.3   215  TYR215     -0.2866
    185  N          2.5290   29.1240   13.3020 N.am  216  GLY216     -0.1942
    186  CA         3.6290   28.2000   13.5200 C.3   216  GLY216      0.2014
    187  C          3.2860   27.1980   14.6090 C.2   216  GLY216      0.2639
    188  O          2.9210   27.5730   15.7190 O.2   216  GLY216     -0.2714
    189  N          3.4070   25.9170   14.2980 N.am  217  ILE217     -0.1963
    190  CA         3.0800   24.8860   15.2680 C.3   217  ILE217      0.1727
    191  C          4.3280   24.2760   15.9020 C.2   217  ILE217      0.2616
    192  O          5.1920   23.7450   15.2030 O.2   217  ILE217     -0.2715
    193  CB         2.2660   23.7520   14.5990 C.3   217  ILE217      0.0290
    194  CG1        1.2180   24.3470   13.6500 C.3   217  ILE217      0.0022
    195  CG2        1.6140   22.8880   15.6660 C.3   217  ILE217      0.0023
    196  CD1        0.2200   25.2550   14.3270 C.3   217  ILE217      0.0001
    197  N          4.4250   24.3520   17.2240 N.am  218  TYR218     -0.1974
    198  CA         5.5650   23.7780   17.9270 C.3   218  TYR218      0.1639
    199  C          5.0780   22.6270   18.7840 C.2   218  TYR218      0.2290
    200  O          3.8770   22.4770   19.0000 O.2   218  TYR218     -0.2864
    201  CB         6.2240   24.8010   18.8430 C.3   218  TYR218      0.0560
    202  CG         6.6190   26.0760   18.1640 C.ar  218  TYR218     -0.0198
    203  CD1        5.6770   27.0470   17.8680 C.ar  218  TYR218     -0.0009
    204  CD2        7.9340   26.3090   17.8050 C.ar  218  TYR218     -0.0009
    205  CE1        6.0350   28.2210   17.2290 C.ar  218  TYR218      0.0417
    206  CE2        8.3000   27.4800   17.1650 C.ar  218  TYR218      0.0417
    207  CZ         7.3470   28.4270   16.8760 C.ar  218  TYR218      0.1957
    208  OH         7.7040   29.5590   16.1860 O.3   218  TYR218     -0.2866
@<TRIPOS>BOND
     1    48    47    1
     2    49    47    1
     3   172   170    1
     4    52    53    2
     5    52    51    1
     6    47    46    2
     7    58    56   ar
     8    54    55    1
     9    54    51    1
    10   170   171    1
    11   170   169    2
    12    56    55    1
    13    56    57   ar
    14    51    50    1
    15   169   168    1
    16    46    45    1
    17   104   103    2
    18   105   103   am
    19   168   167    1
    20   103   102    1
    21    45    44    1
    22    44    43    1
    23   167   166    1
    24   153   152    1
    25   153   154    1
    26   166   163    1
    27    43    40    1
    28   102   101    1
    29   152   145   am
    30   156   154   am
    31   156   157    1
    32   163   164    1
    33   163   162    1
    34   101    98    1
    35   154   155    2
    36   159   158    2
    37    69    68   ar
    38    69    67   ar
    39   150   149   ar
    40    40    41    1
    41    40    39    1
    42   160   161    1
    43   160   157    1
    44    96   161    1
    45    96    95    1
    46   145   146    2
    47   145   144    1
    48   164   165    2
    49    68    66   ar
    50   157   158    1
    51    41    42    2
    52    67    65   ar
    53   147   144    1
    54   147   148    1
    55   144   143    1
    56   149   148    1
    57   149   151   ar
    58    98    97    1
    59    98    99    1
    60    97    93   am
    61    95    92    1
    62    66    64   ar
    63   142   141    2
    64    99   100    2
    65    65    64   ar
    66   143   141   am
    67    38    37    1
    68    64    63    1
    69   141   140    1
    70    93    92    1
    71    93    94    2
    72    92    91    1
    73    15    12    1
    74    15    16    1
    75    14    13    2
    76    12    13    1
    77    12    11    1
    78    19    17   ar
    79    36    37   ar
    80    36    34   ar
    81    89    88    2
    82    37    35   ar
    83    59    60    1
    84    13    20   am
    85    63    60    1
    86   140   139    1
    87    91    88   am
    88    17    16    1
    89    17    18   ar
    90    60    61    1
    91    88    87    1
    92   139   127   am
    93    34    32   ar
    94    85    83   ar
    95    82    83    1
    96    82    79    1
    97    35    33   ar
    98     8    10   ar
    99     8     6   ar
   100     4     3    2
   101   135   137   ar
   102   135   132   ar
   103    20    21    1
   104   137   138   ar
   105    83    84   ar
   106   111   110    1
   107    78    79    1
   108   173   174    1
   109    10     9   ar
   110    81    80    2
   111   129   126    1
   112   129   130    1
   113    80    79    1
   114    80    86   am
   115   176   175    2
   116    61    62    2
   117    61    70   am
   118    21    22    1
   119    21    24    1
   120   127   126    1
   121   127   128    2
   122    32    33   ar
   123    32    31    1
   124    87    86    1
   125    87    90    1
   126    26    24    1
   127     6     5    1
   128     6     7   ar
   129   126   125    1
   130     5     2    1
   131   132   130   ar
   132   132   134   ar
   133     3     2    1
   134   138   136   ar
   135    70    71    1
   136   130   131   ar
   137   110   107    1
   138   174   175    1
   139   174   177    1
   140    22    27   am
   141    22    23    2
   142   175   185   am
   143     9     7   ar
   144   106   107    1
   145    24    25    1
   146    27    28    1
   147     2     1    1
   148   122   121    2
   149    31    28    1
   150    75    77    1
   151    75    74    1
   152   134   136   ar
   153   134   133   ar
   154   107   108    1
   155   125   121   am
   156    28    29    1
   157   185   186    1
   158   131   133   ar
   159   121   120    1
   160   177   178    1
   161    71    74    1
   162    71    72    1
   163   180   178   ar
   164   180   182   ar
   165   186   187    1
   166   178   179   ar
   167   182   183   ar
   168   194   196    1
   169   194   193    1
   170    74    76    1
   171   179   181   ar
   172   183   181   ar
   173   183   184    1
   174   117   116    1
   175   109   108    2
   176   189   187   am
   177   189   190    1
   178    72    73    2
   179    29    30    2
   180   193   190    1
   181   193   195    1
   182   187   188    2
   183   120   119    1
   184   120   123    1
   185   124   123    1
   186   115   114    2
   187   192   191    2
   188   190   191    1
   189   119   114   am
   190   116   118    1
   191   116   113    1
   192   114   113    1
   193   191   197   am
   194   208   207    1
   195   113   112    1
   196   207   206   ar
   197   207   205   ar
   198   206   204   ar
   199   197   198    1
   200   205   203   ar
   201   204   202   ar
   202   203   202   ar
   203   198   199    1
   204   198   201    1
   205   202   201    1
   206   199   200    2
