@<TRIPOS>MOLECULE
tmp/1iqlA00.pdb
 174 172 0 0 0
SMALL
GASTEIGER

@<TRIPOS>ATOM
      1  N          2.3920   10.5350    9.5720 N.3    83  GLU83      -0.1231
      2  CA         1.4170   11.3310    8.8280 C.3    83  GLU83       0.1699
      3  C          0.7520   12.5280    9.5160 C.2    83  GLU83       0.2593
      4  O          0.3380   13.4770    8.8490 O.2    83  GLU83      -0.2718
      5  CB         0.3330   10.3930    8.2830 C.3    83  GLU83       0.0402
      6  CG        -0.2210    9.3940    9.3220 C.3    83  GLU83       0.1161
      7  CD         0.7570    8.2600    9.6820 C.2    83  GLU83       0.3649
      8  OE1        0.4620    7.5080   10.6400 O.co2  83  GLU83      -0.2457
      9  OE2        1.8070    8.1050    9.0110 O.co2  83  GLU83      -0.2457
     10  N          0.6470   12.5010   10.8370 N.am   84  THR84      -0.1939
     11  CA        -0.0010   13.6000   11.5390 C.3    84  THR84       0.2028
     12  C          0.9490   14.4100   12.4040 C.2    84  THR84       0.2642
     13  O          0.5040   15.1620   13.2610 O.2    84  THR84      -0.2714
     14  CB        -1.1000   13.0840   12.4570 C.3    84  THR84       0.1808
     15  OG1       -0.4990   12.4510   13.5890 O.3    84  THR84      -0.2208
     16  CG2       -1.9720   12.0750   11.7330 C.3    84  THR84       0.0379
     17  N          2.2520   14.2540   12.1890 N.am   85  TYR85      -0.1973
     18  CA         3.2470   14.9760   12.9770 C.3    85  TYR85       0.1639
     19  C          2.8930   14.9780   14.4550 C.2    85  TYR85       0.2290
     20  O          3.3160   15.8660   15.1920 O.2    85  TYR85      -0.2864
     21  CB         3.3650   16.4220   12.4960 C.3    85  TYR85       0.0560
     22  CG         4.2400   16.5890   11.2810 C.ar   85  TYR85      -0.0198
     23  CD1        5.4230   17.3230   11.3520 C.ar   85  TYR85      -0.0009
     24  CD2        3.9020   15.9980   10.0640 C.ar   85  TYR85      -0.0009
     25  CE1        6.2470   17.4630   10.2460 C.ar   85  TYR85       0.0417
     26  CE2        4.7210   16.1310    8.9490 C.ar   85  TYR85       0.0417
     27  CZ         5.8900   16.8650    9.0510 C.ar   85  TYR85       0.1957
     28  OH         6.7060   17.0100    7.9570 O.3    85  TYR85      -0.2866
     29  N         -5.0450   20.7920    9.1270 N.3   162  PHE162     -0.1227
     30  CA        -4.7590   19.4930    9.7130 C.3   162  PHE162      0.1736
     31  C         -5.0200   19.5490   11.2190 C.2   162  PHE162      0.2595
     32  O         -4.8210   20.5820   11.8660 O.2   162  PHE162     -0.2718
     33  CB        -3.3010   19.1130    9.4150 C.3   162  PHE162      0.0547
     34  CG        -2.9520   19.1570    7.9480 C.ar  162  PHE162     -0.0202
     35  CD1       -3.2230   18.0720    7.1160 C.ar  162  PHE162     -0.0042
     36  CD2       -2.3910   20.3030    7.3870 C.ar  162  PHE162     -0.0042
     37  CE1       -2.9400   18.1260    5.7510 C.ar  162  PHE162     -0.0003
     38  CE2       -2.1070   20.3690    6.0180 C.ar  162  PHE162     -0.0003
     39  CZ        -2.3820   19.2780    5.2030 C.ar  162  PHE162     -0.0000
     40  N         -5.4710   18.4360   11.7800 N.am  163  ILE163     -0.1980
     41  CA        -5.7750   18.3950   13.1980 C.3   163  ILE163      0.1595
     42  C         -4.6220   18.8990   14.0550 C.2   163  ILE163      0.2287
     43  O         -3.4620   18.6340   13.7740 O.2   163  ILE163     -0.2864
     44  CB        -6.1490   16.9660   13.6260 C.3   163  ILE163      0.0276
     45  CG1       -7.1330   16.3730   12.6090 C.3   163  ILE163      0.0022
     46  CG2       -6.7690   16.9740   15.0240 C.3   163  ILE163      0.0022
     47  CD1       -8.3480   17.2560   12.3040 C.3   163  ILE163      0.0001
     48  N          0.3240   19.9540   20.6200 N.3   168  MET168     -0.1245
     49  CA         0.7450   21.0320   19.7370 C.3   168  MET168      0.1570
     50  C          0.1720   22.3740   20.1740 C.2   168  MET168      0.2261
     51  O         -0.6450   22.4350   21.0840 O.2   168  MET168     -0.2867
     52  CB         0.2790   20.7460   18.3080 C.3   168  MET168      0.0387
     53  CG         0.5920   19.3540   17.7830 C.3   168  MET168      0.0595
     54  SD         0.0420   19.1490   16.0510 S.3   168  MET168     -0.1393
     55  CE        -0.0350   17.3210   15.9430 C.3   168  MET168      0.0692
     56  N          8.5660   33.8320   10.7100 N.3   179  ASP179     -0.1225
     57  CA         8.2280   32.4830   11.1430 C.3   179  ASP179      0.1805
     58  C          9.3930   31.5010   10.9920 C.2   179  ASP179      0.2598
     59  O         10.4020   31.8110   10.3690 O.2   179  ASP179     -0.2718
     60  CB         7.0270   32.0010   10.3330 C.3   179  ASP179      0.1424
     61  CG         6.4730   30.6990   10.8340 C.2   179  ASP179      0.3668
     62  OD1        6.4130   30.5070   12.0720 O.co2 179  ASP179     -0.2456
     63  OD2        6.0850   29.8720    9.9830 O.co2 179  ASP179     -0.2456
     64  N          9.2550   30.3210   11.5840 N.am  180  ALA180     -0.1966
     65  CA        10.2820   29.3000   11.4860 C.3   180  ALA180      0.1728
     66  C         10.1460   28.7470   10.0830 C.2   180  ALA180      0.2616
     67  O          9.2570   29.1620    9.3570 O.2   180  ALA180     -0.2715
     68  CB        10.0390   28.2180   12.5110 C.3   180  ALA180      0.0334
     69  N         11.0160   27.8230    9.6900 N.am  181  CYS181     -0.1954
     70  CA        10.9460   27.2540    8.3430 C.3   181  CYS181      0.1843
     71  C         11.8440   26.0230    8.2190 C.2   181  CYS181      0.2625
     72  O         12.4100   25.5630    9.2120 O.2   181  CYS181     -0.2714
     73  CB        11.3550   28.3130    7.3210 C.3   181  CYS181      0.0997
     74  SG        10.9870   27.9190    5.5860 S.3   181  CYS181     -0.0797
     75  N         11.9900   25.4950    7.0060 N.am  182  GLN182     -0.1977
     76  CA        12.8090   24.3030    6.8150 C.3   182  GLN182      0.1601
     77  C         14.2010   24.4170    7.4360 C.2   182  GLN182      0.2287
     78  O         14.8830   25.4260    7.2790 O.2   182  GLN182     -0.2864
     79  CB        12.9310   23.9620    5.3280 C.3   182  GLN182      0.0394
     80  CG        13.6990   22.6660    5.0790 C.3   182  GLN182      0.0908
     81  CD        13.4680   22.0820    3.6960 C.2   182  GLN182      0.2608
     82  OE1       13.9940   21.0120    3.3700 O.2   182  GLN182     -0.2717
     83  NE2       12.6780   22.7760    2.8750 N.am  182  GLN182     -0.0878
     84  N         13.1100   22.8610   12.1190 N.3   185  SER185     -0.1217
     85  CA        12.3990   21.7980   12.8090 C.3   185  SER185      0.1889
     86  C         13.3230   21.1520   13.8290 C.2   185  SER185      0.2288
     87  O         14.4990   20.9220   13.5490 O.2   185  SER185     -0.2866
     88  CB        11.9040   20.7650   11.8010 C.3   185  SER185      0.2089
     89  OG        11.0410   21.3750   10.8540 O.3   185  SER185     -0.2183
     90  N         10.2680   23.1450   17.4160 N.3   203  VAL203     -0.1231
     91  CA         9.8980   23.4360   16.0450 C.3   203  VAL203      0.1692
     92  C          9.3990   22.1420   15.4080 C.2   203  VAL203      0.2593
     93  O         10.1870   21.2720   15.0310 O.2   203  VAL203     -0.2718
     94  CB        11.0980   23.9880   15.2540 C.3   203  VAL203      0.0266
     95  CG1       10.6800   24.2820   13.8290 C.3   203  VAL203      0.0020
     96  CG2       11.6200   25.2550   15.9240 C.3   203  VAL203      0.0020
     97  N          8.0820   22.0160   15.2930 N.am  204  SER204     -0.1938
     98  CA         7.4960   20.8080   14.7250 C.3   204  SER204      0.2055
     99  C          7.1730   20.9430   13.2380 C.2   204  SER204      0.2643
    100  O          7.8330   20.3140   12.4040 O.2   204  SER204     -0.2714
    101  CB         6.2360   20.4150   15.5150 C.3   204  SER204      0.2130
    102  OG         5.9770   19.0240   15.4280 O.3   204  SER204     -0.2179
    103  N          6.1710   21.7550   12.9020 N.am  205  TRP205     -0.1959
    104  CA         5.7850   21.9280   11.5000 C.3   205  TRP205      0.1771
    105  C          4.9830   23.1900   11.2310 C.2   205  TRP205      0.2620
    106  O          4.6830   23.9740   12.1390 O.2   205  TRP205     -0.2715
    107  CB         4.9640   20.7260   11.0020 C.3   205  TRP205      0.0590
    108  CG         3.7130   20.4870   11.7940 C.ar  205  TRP205      0.0006
    109  CD1        3.6280   19.9350   13.0350 C.ar  205  TRP205      0.0946
    110  CD2        2.3800   20.8700   11.4350 C.ar  205  TRP205      0.0152
    111  NE1        2.3260   19.9540   13.4790 N.ar  205  TRP205     -0.2442
    112  CE2        1.5400   20.5240   12.5170 C.ar  205  TRP205      0.0810
    113  CE3        1.8130   21.4760   10.3050 C.ar  205  TRP205      0.0012
    114  CZ2        0.1640   20.7660   12.5060 C.ar  205  TRP205      0.0191
    115  CZ3        0.4440   21.7170   10.2930 C.ar  205  TRP205      0.0001
    116  CH2       -0.3650   21.3620   11.3890 C.ar  205  TRP205      0.0015
    117  N          4.6350   23.3660    9.9610 N.am  206  GLY206     -0.1940
    118  CA         3.8600   24.5190    9.5510 C.3   206  GLY206      0.2014
    119  C          3.4680   24.3370    8.1080 C.2   206  GLY206      0.2639
    120  O          3.9930   23.4550    7.4430 O.2   206  GLY206     -0.2714
    121  N          2.5510   25.1580    7.6170 N.am  207  GLU207     -0.1963
    122  CA         2.1120   25.0530    6.2260 C.3   207  GLU207      0.1733
    123  C          2.7830   26.1360    5.3820 C.2   207  GLU207      0.2617
    124  O          2.2740   27.2500    5.2510 O.2   207  GLU207     -0.2715
    125  CB         0.5820   25.1540    6.1670 C.3   207  GLU207      0.0429
    126  CG        -0.0890   24.0680    7.0130 C.3   207  GLU207      0.1163
    127  CD        -1.6020   24.0670    6.9270 C.2   207  GLU207      0.3649
    128  OE1       -2.1390   23.8430    5.8160 O.co2 207  GLU207     -0.2457
    129  OE2       -2.2480   24.2790    7.9820 O.co2 207  GLU207     -0.2457
    130  N          3.9330   25.7840    4.8080 N.am  208  GLY208     -0.1940
    131  CA         4.7030   26.7280    4.0150 C.3   208  GLY208      0.2014
    132  C          5.6530   27.4110    4.9840 C.2   208  GLY208      0.2639
    133  O          6.1720   26.7710    5.8960 O.2   208  GLY208     -0.2714
    134  N          5.8830   28.7040    4.8040 N.am  209  CYS209     -0.1967
    135  CA         6.7610   29.4470    5.6990 C.3   209  CYS209      0.1712
    136  C          6.2930   30.8970    5.7330 C.2   209  CYS209      0.2296
    137  O          6.3750   31.6090    4.7310 O.2   209  CYS209     -0.2864
    138  CB         8.2320   29.3470    5.2310 C.3   209  CYS209      0.0983
    139  SG         8.9640   27.7000    5.5370 S.3   209  CYS209     -0.0798
    140  N          3.2310   32.2100    5.9080 N.3   211  ARG211     -0.1245
    141  CA         2.1410   32.4210    4.9650 C.3   211  ARG211      0.1563
    142  C          0.9830   33.1020    5.6830 C.2   211  ARG211      0.2260
    143  O          0.8020   32.9240    6.8950 O.2   211  ARG211     -0.2867
    144  CB         1.6430   31.0940    4.4150 C.3   211  ARG211      0.0307
    145  CG         2.6010   30.3460    3.5410 C.3   211  ARG211      0.0489
    146  CD         1.9090   29.0960    3.0580 C.3   211  ARG211      0.2205
    147  NE         2.6980   28.3500    2.0890 N.pl3 211  ARG211     -0.0865
    148  CZ         2.2340   27.3010    1.4200 C.cat 211  ARG211      0.5346
    149  NH1        0.9860   26.8890    1.6270 N.pl3 211  ARG211      0.1354
    150  NH2        3.0130   26.6670    0.5510 N.pl3 211  ARG211      0.1354
    151  N          3.0240   28.9040   12.8210 N.3   216  GLY216     -0.1210
    152  CA         4.0130   27.8700   13.0040 C.3   216  GLY216      0.1956
    153  C          3.5020   26.9550   14.0880 C.2   216  GLY216      0.2612
    154  O          3.1020   27.4150   15.1590 O.2   216  GLY216     -0.2717
    155  N          3.5010   25.6580   13.8100 N.am  217  ILE217     -0.1965
    156  CA         3.0380   24.6820   14.7850 C.3   217  ILE217      0.1727
    157  C          4.2450   24.1450   15.5500 C.2   217  ILE217      0.2616
    158  O          5.2120   23.6490   14.9570 O.2   217  ILE217     -0.2715
    159  CB         2.2760   23.5100   14.0890 C.3   217  ILE217      0.0290
    160  CG1        1.2750   24.0750   13.0820 C.3   217  ILE217      0.0022
    161  CG2        1.5180   22.6810   15.1170 C.3   217  ILE217      0.0023
    162  CD1        0.3280   25.0900   13.6980 C.3   217  ILE217      0.0001
    163  N          4.1860   24.2620   16.8700 N.am  218  TYR218     -0.1974
    164  CA         5.2560   23.7960   17.7350 C.3   218  TYR218      0.1639
    165  C          4.7410   22.6650   18.5980 C.2   218  TYR218      0.2290
    166  O          3.5460   22.5770   18.8720 O.2   218  TYR218     -0.2864
    167  CB         5.7660   24.9270   18.6450 C.3   218  TYR218      0.0560
    168  CG         6.3420   26.1130   17.9050 C.ar  218  TYR218     -0.0198
    169  CD1        5.5140   27.0110   17.2400 C.ar  218  TYR218     -0.0009
    170  CD2        7.7210   26.3180   17.8440 C.ar  218  TYR218     -0.0009
    171  CE1        6.0450   28.0850   16.5280 C.ar  218  TYR218      0.0417
    172  CE2        8.2610   27.3850   17.1350 C.ar  218  TYR218      0.0417
    173  CZ         7.4190   28.2610   16.4750 C.ar  218  TYR218      0.1957
    174  OH         7.9420   29.2810   15.7160 O.3   218  TYR218     -0.2866
@<TRIPOS>BOND
     1   150   148    1
     2   148   149    1
     3   148   147    2
     4   147   146    1
     5    83    81   am
     6   146   145    1
     7    82    81    2
     8   145   144    1
     9    81    80    1
    10   131   130    1
    11   131   132    1
    12   144   141    1
    13   137   136    2
    14   134   132   am
    15   134   135    1
    16   130   123   am
    17   141   142    1
    18   141   140    1
    19   132   133    2
    20    80    79    1
    21    39    37   ar
    22    39    38   ar
    23   138   139    1
    24   138   135    1
    25   124   123    2
    26    79    76    1
    27   123   122    1
    28   139    74    1
    29    74    73    1
    30   142   143    2
    31   135   136    1
    32    37    35   ar
    33   128   127   ar
    34    38    36   ar
    35   125   122    1
    36   125   126    1
    37   122   121    1
    38    76    75    1
    39    76    77    1
    40   127   126    1
    41   127   129   ar
    42    75    71   am
    43    35    34   ar
    44    78    77    2
    45    73    70    1
    46    36    34   ar
    47   120   119    2
    48   121   119   am
    49    34    33    1
    50    28    27    1
    51   119   118    1
    52    71    70    1
    53    71    72    2
    54     5     2    1
    55     5     6    1
    56    70    69    1
    57     2     3    1
    58     2     1    1
    59     4     3    2
    60    26    27   ar
    61    26    24   ar
    62     9     7   ar
    63    27    25   ar
    64    29    30    1
    65     6     7    1
    66    67    66    2
    67    33    30    1
    68     3    10   am
    69   118   117    1
    70     7     8   ar
    71    69    66   am
    72    30    31    1
    73   117   105   am
    74    63    61   ar
    75    24    22   ar
    76    66    65    1
    77    25    23   ar
    78   115   113   ar
    79   115   116   ar
    80   113   110   ar
    81    60    61    1
    82    60    57    1
    83    59    58    2
    84    56    57    1
    85    61    62   ar
    86    10    11    1
    87    89    88    1
    88    58    57    1
    89    58    64   am
    90   107   104    1
    91   107   108    1
    92    31    40   am
    93    31    32    2
    94   105   104    1
    95   105   106    2
    96    22    23   ar
    97    22    21    1
    98   116   114   ar
    99   110   108   ar
   100   110   112   ar
   101    65    64    1
   102    65    68    1
   103   104   103    1
   104    11    12    1
   105    11    14    1
   106    16    14    1
   107    40    41    1
   108   108   109   ar
   109    88    85    1
   110    84    85    1
   111    17    12   am
   112    17    18    1
   113    47    45    1
   114   100    99    2
   115    12    13    2
   116    14    15    1
   117    21    18    1
   118   114   112   ar
   119   112   111   ar
   120    45    44    1
   121    85    86    1
   122   151   152    1
   123   103    99   am
   124    18    19    1
   125   152   153    1
   126   109   111   ar
   127   160   162    1
   128   160   159    1
   129    41    44    1
   130    41    42    1
   131    99    98    1
   132    87    86    2
   133    44    46    1
   134    43    42    2
   135   155   153   am
   136   155   156    1
   137    95    94    1
   138   153   154    2
   139   159   156    1
   140   159   161    1
   141    19    20    2
   142    98    97    1
   143    98   101    1
   144   156   157    1
   145   158   157    2
   146    93    92    2
   147    94    96    1
   148    94    91    1
   149    97    92   am
   150    92    91    1
   151   102   101    1
   152   157   163   am
   153   174   173    1
   154    55    54    1
   155    91    90    1
   156    54    53    1
   157   173   171   ar
   158   173   172   ar
   159   171   169   ar
   160   163   164    1
   161   172   170   ar
   162   169   168   ar
   163   164   165    1
   164   164   167    1
   165    53    52    1
   166   170   168   ar
   167   168   167    1
   168    52    49    1
   169   165   166    2
   170    49    50    1
   171    49    48    1
   172    50    51    2
