@<TRIPOS>MOLECULE
tmp/1iqnA00.pdb
 207 204 0 0 0
SMALL
GASTEIGER

@<TRIPOS>ATOM
      1  N         10.7950   13.9440   13.7040 N.3    42  HIS42      -0.1241
      2  CA        10.8490   14.0020   12.2440 C.3    42  HIS42       0.1621
      3  C         12.1870   14.5230   11.6850 C.2    42  HIS42       0.2264
      4  O         12.4180   14.4660   10.4750 O.2    42  HIS42      -0.2867
      5  CB         9.6840   14.8360   11.6890 C.3    42  HIS42       0.0745
      6  CG         9.9940   16.2880   11.5160 C.ar   42  HIS42       0.0817
      7  ND1        9.8380   17.2100   12.5260 N.ar   42  HIS42      -0.2268
      8  CD2       10.4690   16.9750   10.4500 C.ar   42  HIS42       0.1154
      9  CE1       10.2060   18.4040   12.0920 C.ar   42  HIS42       0.1986
     10  NE2       10.5940   18.2880   10.8350 N.ar   42  HIS42      -0.2212
     11  N         15.4160   13.5220    7.9750 N.3    46  GLN46      -0.1245
     12  CA        15.9900   14.4590    7.0130 C.3    46  GLN46       0.1566
     13  C         17.4960   14.2640    6.8250 C.2    46  GLN46       0.2260
     14  O         18.1850   15.1390    6.2940 O.2    46  GLN46      -0.2867
     15  CB        15.7050   15.8980    7.4590 C.3    46  GLN46       0.0367
     16  CG        15.8390   16.9360    6.3540 C.3    46  GLN46       0.0905
     17  CD        14.8660   16.6970    5.2140 C.2    46  GLN46       0.2608
     18  OE1       13.6560   16.6090    5.4250 O.2    46  GLN46      -0.2717
     19  NE2       15.3900   16.5940    3.9970 N.am   46  GLN46      -0.0878
     20  N          4.5760   10.4000   10.8300 N.3    82  LYS82      -0.1231
     21  CA         4.6370   11.5110    9.8860 C.3    82  LYS82       0.1693
     22  C          3.2970   11.9360    9.2710 C.2    82  LYS82       0.2592
     23  O          3.1800   13.0370    8.7280 O.2    82  LYS82      -0.2718
     24  CB         5.6320   11.1780    8.7660 C.3    82  LYS82       0.0285
     25  CG         5.9620    9.6960    8.6310 C.3    82  LYS82       0.0035
     26  CD         6.8140    9.2110    9.7950 C.3    82  LYS82       0.0206
     27  CE         7.0010    7.7050    9.7650 C.3    82  LYS82       0.1093
     28  NZ         7.7450    7.2240   10.9670 N.3    82  LYS82      -0.1314
     29  N          2.2890   11.0750    9.3540 N.am   83  GLU83      -0.1966
     30  CA         0.9890   11.3980    8.7820 C.3    83  GLU83       0.1733
     31  C          0.1800   12.3340    9.6640 C.2    83  GLU83       0.2617
     32  O         -0.8460   12.8470    9.2430 O.2    83  GLU83      -0.2715
     33  CB         0.1860   10.1210    8.5110 C.3    83  GLU83       0.0429
     34  CG         0.3890    9.0320    9.5430 C.3    83  GLU83       0.1163
     35  CD         1.4490    8.0270    9.1230 C.2    83  GLU83       0.3649
     36  OE1        2.0140    7.3410   10.0110 O.co2  83  GLU83      -0.2457
     37  OE2        1.7050    7.9180    7.9000 O.co2  83  GLU83      -0.2457
     38  N          0.6440   12.5500   10.8890 N.am   84  THR84      -0.1937
     39  CA        -0.0460   13.4320   11.8250 C.3    84  THR84       0.2028
     40  C          0.9480   14.3900   12.4580 C.2    84  THR84       0.2642
     41  O          0.5720   15.4540   12.9460 O.2    84  THR84      -0.2714
     42  CB        -0.7180   12.6460   12.9700 C.3    84  THR84       0.1808
     43  OG1        0.2860   11.9610   13.7280 O.3    84  THR84      -0.2208
     44  CG2       -1.7130   11.6390   12.4230 C.3    84  THR84       0.0379
     45  N          2.2190   14.0010   12.4490 N.am   85  TYR85      -0.1973
     46  CA         3.2720   14.8150   13.0360 C.3    85  TYR85       0.1639
     47  C          3.0810   14.9150   14.5410 C.2    85  TYR85       0.2290
     48  O          3.5290   15.8710   15.1740 O.2    85  TYR85      -0.2864
     49  CB         3.2780   16.2080   12.4060 C.3    85  TYR85       0.0560
     50  CG         4.2420   16.3360   11.2540 C.ar   85  TYR85      -0.0198
     51  CD1        5.3400   17.1910   11.3410 C.ar   85  TYR85      -0.0009
     52  CD2        4.0940   15.5660   10.1020 C.ar   85  TYR85      -0.0009
     53  CE1        6.2740   17.2730   10.3130 C.ar   85  TYR85       0.0417
     54  CE2        5.0230   15.6370    9.0670 C.ar   85  TYR85       0.0417
     55  CZ         6.1130   16.4940    9.1810 C.ar   85  TYR85       0.1957
     56  OH         7.0520   16.5740    8.1770 O.3    85  TYR85      -0.2866
     57  N         10.5860   31.5460    2.6320 N.3   135  GLU135     -0.1245
     58  CA        10.0820   30.2190    2.2830 C.3   135  GLU135      0.1567
     59  C         10.8460   29.5830    1.1280 C.2   135  GLU135      0.2260
     60  O         10.9630   28.3640    1.0610 O.2   135  GLU135     -0.2867
     61  CB         8.5850   30.2760    1.9450 C.3   135  GLU135      0.0388
     62  CG         7.8590   28.9350    2.0870 C.3   135  GLU135      0.1160
     63  CD         6.3900   29.0020    1.6780 C.2   135  GLU135      0.3649
     64  OE1        5.6840   29.9310    2.1300 O.co2 135  GLU135     -0.2457
     65  OE2        5.9390   28.1190    0.9120 O.co2 135  GLU135     -0.2457
     66  N         -4.6220   21.1670    9.3760 N.3   162  PHE162     -0.1227
     67  CA        -4.4310   19.8790   10.0230 C.3   162  PHE162      0.1736
     68  C         -4.7970   19.9240   11.4960 C.2   162  PHE162      0.2595
     69  O         -4.7880   20.9870   12.1130 O.2   162  PHE162     -0.2718
     70  CB        -2.9850   19.4430    9.8700 C.3   162  PHE162      0.0547
     71  CG        -2.5600   19.2630    8.4540 C.ar  162  PHE162     -0.0202
     72  CD1       -3.1520   18.2970    7.6590 C.ar  162  PHE162     -0.0042
     73  CD2       -1.5410   20.0320    7.9210 C.ar  162  PHE162     -0.0042
     74  CE1       -2.7270   18.0940    6.3510 C.ar  162  PHE162     -0.0003
     75  CE2       -1.1080   19.8350    6.6110 C.ar  162  PHE162     -0.0003
     76  CZ        -1.7030   18.8640    5.8280 C.ar  162  PHE162     -0.0000
     77  N         -5.1090   18.7620   12.0590 N.am  163  ILE163     -0.1980
     78  CA        -5.4930   18.6740   13.4640 C.3   163  ILE163      0.1595
     79  C         -4.3750   19.0210   14.4390 C.2   163  ILE163      0.2287
     80  O         -3.3770   18.3000   14.5490 O.2   163  ILE163     -0.2864
     81  CB        -6.0060   17.2650   13.8230 C.3   163  ILE163      0.0276
     82  CG1       -7.3200   16.9820   13.0860 C.3   163  ILE163      0.0022
     83  CG2       -6.2140   17.1590   15.3200 C.3   163  ILE163      0.0022
     84  CD1       -7.7750   15.5360   13.1640 C.3   163  ILE163      0.0001
     85  N          8.2790   34.2350   11.3470 N.3   179  ASP179     -0.1225
     86  CA         7.9420   32.8720   11.7430 C.3   179  ASP179      0.1805
     87  C          9.1820   32.0300   11.4770 C.2   179  ASP179      0.2598
     88  O         10.1380   32.5160   10.8750 O.2   179  ASP179     -0.2718
     89  CB         6.7630   32.3730   10.8970 C.3   179  ASP179      0.1424
     90  CG         6.4620   30.9030   11.1040 C.2   179  ASP179      0.3668
     91  OD1        6.6080   30.4050   12.2420 O.co2 179  ASP179     -0.2456
     92  OD2        6.0550   30.2450   10.1230 O.co2 179  ASP179     -0.2456
     93  N          9.1840   30.7850   11.9410 N.am  180  ALA180     -0.1966
     94  CA        10.3170   29.9040   11.7130 C.3   180  ALA180      0.1728
     95  C         10.1690   29.4240   10.2820 C.2   180  ALA180      0.2616
     96  O          9.2360   29.8260    9.5950 O.2   180  ALA180     -0.2715
     97  CB        10.2840   28.7310   12.6790 C.3   180  ALA180      0.0334
     98  N         11.0800   28.5730    9.8280 N.am  181  CYS181     -0.1954
     99  CA        11.0200   28.0760    8.4630 C.3   181  CYS181      0.1843
    100  C         11.8540   26.8020    8.3280 C.2   181  CYS181      0.2625
    101  O         12.3650   26.2890    9.3270 O.2   181  CYS181     -0.2714
    102  CB        11.5220   29.1630    7.5140 C.3   181  CYS181      0.0997
    103  SG        11.0470   28.9320    5.7760 S.3   181  CYS181     -0.0797
    104  N         11.9930   26.2930    7.1030 N.am  182  GLN182     -0.1963
    105  CA        12.7550   25.0650    6.8630 C.3   182  GLN182      0.1733
    106  C         14.1380   25.0700    7.5330 C.2   182  GLN182      0.2616
    107  O         14.8330   26.0870    7.5450 O.2   182  GLN182     -0.2715
    108  CB        12.9270   24.8410    5.3630 C.3   182  GLN182      0.0408
    109  CG        13.2640   23.3990    4.9920 C.3   182  GLN182      0.0908
    110  CD        13.6560   23.2550    3.5390 C.2   182  GLN182      0.2608
    111  OE1       13.1430   23.9630    2.6740 O.2   182  GLN182     -0.2717
    112  NE2       14.5600   22.3260    3.2590 N.am  182  GLN182     -0.0878
    113  N         14.5380   23.9310    8.0860 N.am  183  GLY183     -0.1955
    114  CA        15.8290   23.8590    8.7440 C.3   183  GLY183      0.1869
    115  C         15.8150   24.2500   10.2150 C.2   183  GLY183      0.2309
    116  O         16.7290   23.8860   10.9590 O.2   183  GLY183     -0.2863
    117  N         13.5280   23.2600   12.2760 N.3   185  SER185     -0.1217
    118  CA        12.9010   22.1580   13.0130 C.3   185  SER185      0.1889
    119  C         13.8110   21.5510   14.0740 C.2   185  SER185      0.2288
    120  O         15.0230   21.4740   13.8890 O.2   185  SER185     -0.2866
    121  CB        12.4650   21.0460   12.0510 C.3   185  SER185      0.2089
    122  OG        11.4530   21.4880   11.1670 O.3   185  SER185     -0.2183
    123  N         10.6550   23.1970   17.6750 N.3   203  VAL203     -0.1231
    124  CA        10.1900   23.6180   16.3530 C.3   203  VAL203      0.1692
    125  C          9.7730   22.3680   15.5720 C.2   203  VAL203      0.2593
    126  O         10.6130   21.5320   15.2420 O.2   203  VAL203     -0.2718
    127  CB        11.2910   24.3640   15.5910 C.3   203  VAL203      0.0266
    128  CG1       10.8010   24.7360   14.2090 C.3   203  VAL203      0.0020
    129  CG2       11.6920   25.6110   16.3600 C.3   203  VAL203      0.0020
    130  N          8.4740   22.2540   15.2800 N.am  204  SER204     -0.1938
    131  CA         7.9250   21.0790   14.5910 C.3   204  SER204      0.2055
    132  C          7.5130   21.2480   13.1340 C.2   204  SER204      0.2643
    133  O          8.1510   20.6920   12.2370 O.2   204  SER204     -0.2714
    134  CB         6.7270   20.5300   15.3770 C.3   204  SER204      0.2130
    135  OG         6.2280   19.3350   14.7940 O.3   204  SER204     -0.2179
    136  N          6.4310   21.9810   12.8930 N.am  205  TRP205     -0.1959
    137  CA         5.9730   22.1850   11.5250 C.3   205  TRP205      0.1771
    138  C          5.1660   23.4530   11.3350 C.2   205  TRP205      0.2620
    139  O          4.9920   24.2490   12.2560 O.2   205  TRP205     -0.2715
    140  CB         5.1350   20.9910   11.0500 C.3   205  TRP205      0.0590
    141  CG         3.9510   20.7060   11.9110 C.ar  205  TRP205      0.0006
    142  CD1        3.9430   20.0130   13.0850 C.ar  205  TRP205      0.0946
    143  CD2        2.5920   21.1120   11.6740 C.ar  205  TRP205      0.0152
    144  NE1        2.6640   19.9560   13.5970 N.ar  205  TRP205     -0.2442
    145  CE2        1.8160   20.6220   12.7520 C.ar  205  TRP205      0.0810
    146  CE3        1.9560   21.8400   10.6570 C.ar  205  TRP205      0.0012
    147  CZ2        0.4320   20.8350   12.8420 C.ar  205  TRP205      0.0191
    148  CZ3        0.5730   22.0520   10.7470 C.ar  205  TRP205      0.0001
    149  CH2       -0.1690   21.5490   11.8340 C.ar  205  TRP205      0.0015
    150  N          4.6770   23.6140   10.1110 N.am  206  GLY206     -0.1940
    151  CA         3.8720   24.7560    9.7310 C.3   206  GLY206      0.2014
    152  C          3.5360   24.5690    8.2660 C.2   206  GLY206      0.2639
    153  O          4.1600   23.7480    7.5990 O.2   206  GLY206     -0.2714
    154  N          2.5440   25.2980    7.7670 N.am  207  GLU207     -0.1963
    155  CA         2.1620   25.2160    6.3540 C.3   207  GLU207      0.1733
    156  C          2.8390   26.3850    5.6430 C.2   207  GLU207      0.2617
    157  O          2.3180   27.5030    5.6160 O.2   207  GLU207     -0.2715
    158  CB         0.6470   25.3180    6.2040 C.3   207  GLU207      0.0429
    159  CG        -0.1030   24.2530    6.9670 C.3   207  GLU207      0.1163
    160  CD        -1.5980   24.4570    6.9010 C.2   207  GLU207      0.3649
    161  OE1       -2.1510   24.4450    5.7740 O.co2 207  GLU207     -0.2457
    162  OE2       -2.2170   24.6320    7.9750 O.co2 207  GLU207     -0.2457
    163  N          4.0090   26.1100    5.0710 N.am  208  GLY208     -0.1940
    164  CA         4.7710   27.1440    4.4030 C.3   208  GLY208      0.2014
    165  C          5.5250   27.9010    5.4760 C.2   208  GLY208      0.2639
    166  O          5.7110   27.3810    6.5780 O.2   208  GLY208     -0.2714
    167  N          5.9550   29.1220    5.1730 N.am  209  CYS209     -0.1967
    168  CA         6.6800   29.9280    6.1480 C.3   209  CYS209      0.1712
    169  C          6.0890   31.3290    6.2360 C.2   209  CYS209      0.2296
    170  O          5.9610   32.0290    5.2310 O.2   209  CYS209     -0.2864
    171  CB         8.1780   30.0120    5.7910 C.3   209  CYS209      0.0983
    172  SG         9.0820   28.4250    5.8700 S.3   209  CYS209     -0.0798
    173  N          3.1670   32.4000    6.4690 N.3   211  ARG211     -0.1245
    174  CA         1.9870   32.6520    5.6400 C.3   211  ARG211      0.1563
    175  C          0.8500   33.3200    6.4140 C.2   211  ARG211      0.2260
    176  O          0.5920   32.9840    7.5700 O.2   211  ARG211     -0.2867
    177  CB         1.4580   31.3460    5.0420 C.3   211  ARG211      0.0307
    178  CG         2.3960   30.6200    4.0950 C.3   211  ARG211      0.0489
    179  CD         1.6950   29.3930    3.5270 C.3   211  ARG211      0.2205
    180  NE         2.5780   28.5300    2.7490 N.pl3 211  ARG211     -0.0865
    181  CZ         2.1810   27.4150    2.1380 C.cat 211  ARG211      0.5346
    182  NH1        0.9080   27.0320    2.2160 N.pl3 211  ARG211      0.1354
    183  NH2        3.0540   26.6800    1.4540 N.pl3 211  ARG211      0.1354
    184  N          3.0540   29.0840   13.4330 N.3   216  GLY216     -0.1210
    185  CA         4.1230   28.1090   13.6000 C.3   216  GLY216      0.1956
    186  C          3.6360   27.0450   14.5730 C.2   216  GLY216      0.2612
    187  O          3.0330   27.3770   15.5900 O.2   216  GLY216     -0.2717
    188  N          3.8730   25.7720   14.2770 N.am  217  ILE217     -0.1965
    189  CA         3.3950   24.7120   15.1550 C.3   217  ILE217      0.1727
    190  C          4.5380   24.0510   15.9140 C.2   217  ILE217      0.2616
    191  O          5.3910   23.3820   15.3250 O.2   217  ILE217     -0.2715
    192  CB         2.6290   23.6250   14.3550 C.3   217  ILE217      0.0290
    193  CG1        1.7210   24.2730   13.3040 C.3   217  ILE217      0.0022
    194  CG2        1.7940   22.7800   15.3040 C.3   217  ILE217      0.0023
    195  CD1        0.7520   25.2760   13.8740 C.3   217  ILE217      0.0001
    196  N          4.5380   24.2250   17.2300 N.am  218  TYR218     -0.1974
    197  CA         5.5880   23.6730   18.0720 C.3   218  TYR218      0.1639
    198  C          5.1440   22.4810   18.8990 C.2   218  TYR218      0.2290
    199  O          3.9700   22.3330   19.2180 O.2   218  TYR218     -0.2864
    200  CB         6.1180   24.7540   19.0210 C.3   218  TYR218      0.0560
    201  CG         6.6660   25.9710   18.3190 C.ar  218  TYR218     -0.0198
    202  CD1        5.8180   26.8750   17.6890 C.ar  218  TYR218     -0.0009
    203  CD2        8.0360   26.2090   18.2660 C.ar  218  TYR218     -0.0009
    204  CE1        6.3160   27.9910   17.0190 C.ar  218  TYR218      0.0417
    205  CE2        8.5490   27.3210   17.5970 C.ar  218  TYR218      0.0417
    206  CZ         7.6840   28.2080   16.9760 C.ar  218  TYR218      0.1957
    207  OH         8.1780   29.3060   16.3120 O.3   218  TYR218     -0.2866
@<TRIPOS>BOND
     1    65    63   ar
     2    60    59    2
     3    59    58    1
     4   183   181    1
     5    63    62    1
     6    63    64   ar
     7    61    62    1
     8    61    58    1
     9   181   182    1
    10   181   180    2
    11    58    57    1
    12   111   110    2
    13   180   179    1
    14   112   110   am
    15   179   178    1
    16   110   109    1
    17    19    17   am
    18   178   177    1
    19   164   163    1
    20   164   165    1
    21   109   108    1
    22   177   174    1
    23   163   156   am
    24   167   165   am
    25   167   168    1
    26    17    18    2
    27    17    16    1
    28   170   169    2
    29   108   105    1
    30   165   166    2
    31   157   156    2
    32   174   175    1
    33   174   173    1
    34   156   155    1
    35   161   160   ar
    36   103   172    1
    37   103   102    1
    38   171   172    1
    39   171   168    1
    40    76    74   ar
    41    76    75   ar
    42   168   169    1
    43   158   155    1
    44   158   159    1
    45    14    13    2
    46    74    72   ar
    47    16    15    1
    48   155   154    1
    49   175   176    2
    50    75    73   ar
    51    13    12    1
    52   105   104    1
    53   105   106    1
    54   160   159    1
    55   160   162   ar
    56    12    15    1
    57    12    11    1
    58   104   100   am
    59   102    99    1
    60   106   107    2
    61   106   113   am
    62   153   152    2
    63    72    71   ar
    64   154   152   am
    65    37    35   ar
    66    73    71   ar
    67   113   114    1
    68    56    55    1
    69   152   151    1
    70   100    99    1
    71   100   101    2
    72    71    70    1
    73    99    98    1
    74    33    30    1
    75    33    34    1
    76    25    24    1
    77    25    26    1
    78    23    22    2
    79   114   115    1
    80    24    21    1
    81    30    29    1
    82    30    31    1
    83    54    55   ar
    84    54    52   ar
    85    35    34    1
    86    35    36   ar
    87    55    53   ar
    88    32    31    2
    89    22    29   am
    90    22    21    1
    91    66    67    1
    92    96    95    2
    93    31    38   am
    94   151   150    1
    95    27    26    1
    96    27    28    1
    97    98    95   am
    98    70    67    1
    99    21    20    1
   100    67    68    1
   101    52    50   ar
   102   150   138   am
   103    92    90   ar
   104   115   116    2
   105    95    94    1
   106    53    51   ar
   107     8    10   ar
   108     8     6   ar
   109     4     3    2
   110   146   148   ar
   111   146   143   ar
   112   148   149   ar
   113    10     9   ar
   114    88    87    2
   115    38    39    1
   116    89    90    1
   117    89    86    1
   118   140   137    1
   119   140   141    1
   120    90    91   ar
   121   122   121    1
   122    50    51   ar
   123    50    49    1
   124   138   137    1
   125   138   139    2
   126    85    86    1
   127    87    86    1
   128    87    93   am
   129    68    77   am
   130    68    69    2
   131     6     5    1
   132     6     7   ar
   133   137   136    1
   134   143   141   ar
   135   143   145   ar
   136     3     2    1
   137     5     2    1
   138    94    93    1
   139    94    97    1
   140    39    40    1
   141    39    42    1
   142   149   147   ar
   143   141   142   ar
   144   121   118    1
   145    77    78    1
   146     9     7   ar
   147   133   132    2
   148     2     1    1
   149   117   118    1
   150    49    46    1
   151    44    42    1
   152    45    40   am
   153    45    46    1
   154    40    41    2
   155   145   147   ar
   156   145   144   ar
   157   136   132   am
   158    42    43    1
   159   118   119    1
   160    46    47    1
   161   142   144   ar
   162    82    84    1
   163    82    81    1
   164   132   131    1
   165   193   195    1
   166   193   192    1
   167   184   185    1
   168    78    81    1
   169    78    79    1
   170   185   186    1
   171    81    83    1
   172   120   119    2
   173   128   127    1
   174   188   186   am
   175   188   189    1
   176   192   189    1
   177   192   194    1
   178    79    80    2
   179    47    48    2
   180   186   187    2
   181   131   130    1
   182   131   134    1
   183   135   134    1
   184   189   190    1
   185   126   125    2
   186   130   125   am
   187   191   190    2
   188   125   124    1
   189   127   124    1
   190   127   129    1
   191   190   196   am
   192   207   206    1
   193   124   123    1
   194   206   204   ar
   195   206   205   ar
   196   204   202   ar
   197   196   197    1
   198   205   203   ar
   199   202   201   ar
   200   197   198    1
   201   197   200    1
   202   203   201   ar
   203   201   200    1
   204   198   199    2
