@<TRIPOS>MOLECULE
tmp/1iqpE00.pdb
 173 166 0 0 0
SMALL
GASTEIGER

@<TRIPOS>ATOM
      1  N         39.4660   10.8200  223.3090 N.3    15  VAL15      -0.1245
      2  CA        40.1920    9.7560  222.6120 C.3    15  VAL15       0.1561
      3  C         40.8510    8.7980  223.5900 C.2    15  VAL15       0.2260
      4  O         40.8500    7.5820  223.3840 O.2    15  VAL15      -0.2867
      5  CB        41.3050   10.3290  221.7020 C.3    15  VAL15       0.0252
      6  CG1       42.1020    9.1940  221.0710 C.3    15  VAL15       0.0019
      7  CG2       40.7010   11.2130  220.6350 C.3    15  VAL15       0.0019
      8  N         38.1880    7.2830  226.7090 N.3    18  TYR18      -0.1227
      9  CA        37.3470    6.1470  226.3530 C.3    18  TYR18       0.1736
     10  C         38.0180    5.0540  225.5340 C.2    18  TYR18       0.2595
     11  O         37.3370    4.2890  224.8550 O.2    18  TYR18      -0.2718
     12  CB        36.0850    6.6110  225.6240 C.3    18  TYR18       0.0548
     13  CG        35.2460    7.5960  226.4060 C.ar   18  TYR18      -0.0200
     14  CD1       35.5920    8.9480  226.4550 C.ar   18  TYR18      -0.0009
     15  CD2       34.1090    7.1790  227.1050 C.ar   18  TYR18      -0.0009
     16  CE1       34.8310    9.8620  227.1780 C.ar   18  TYR18       0.0417
     17  CE2       33.3370    8.0870  227.8350 C.ar   18  TYR18       0.0417
     18  CZ        33.7070    9.4290  227.8660 C.ar   18  TYR18       0.1957
     19  OH        32.9620   10.3410  228.5810 O.3    18  TYR18      -0.2866
     20  N         39.3420    4.9650  225.5870 N.am   19  ARG19      -0.1966
     21  CA        40.0060    3.9090  224.8390 C.3    19  ARG19       0.1714
     22  C         39.7200    2.5710  225.5180 C.2    19  ARG19       0.2458
     23  O         39.9410    2.4150  226.7200 O.2    19  ARG19      -0.2730
     24  CB        41.5200    4.1180  224.7820 C.3    19  ARG19       0.0347
     25  CG        42.2260    2.9000  224.2030 C.3    19  ARG19       0.0492
     26  CD        43.7400    2.9640  224.3050 C.3    19  ARG19       0.2205
     27  NE        44.3560    3.7050  223.2090 N.pl3  19  ARG19      -0.0865
     28  CZ        44.4820    5.0250  223.1750 C.cat  19  ARG19       0.5346
     29  NH1       44.0330    5.7570  224.1840 N.pl3  19  ARG19       0.1354
     30  NH2       45.0560    5.6110  222.1320 N.pl3  19  ARG19       0.1354
     31  N         39.2110    1.5910  224.7600 N.am   20  PRO20      -0.2727
     32  CA        38.9110    0.2770  225.3260 C.3    20  PRO20       0.1402
     33  C         40.0800   -0.2490  226.1260 C.2    20  PRO20       0.2269
     34  O         41.2410   -0.0620  225.7480 O.2    20  PRO20      -0.2865
     35  CB        38.6230   -0.5560  224.0920 C.3    20  PRO20       0.0296
     36  CG        37.8800    0.4060  223.2740 C.3    20  PRO20       0.0237
     37  CD        38.7390    1.6580  223.3710 C.3    20  PRO20       0.0939
     38  N         37.6940   -3.7450  222.1760 N.3    26  ILE26      -0.1231
     39  CA        38.0800   -3.3130  220.8370 C.3    26  ILE26       0.1692
     40  C         37.0430   -3.8130  219.8350 C.2    26  ILE26       0.2591
     41  O         36.4450   -4.8710  220.0350 O.2    26  ILE26      -0.2718
     42  CB        39.4840   -3.8650  220.4690 C.3    26  ILE26       0.0266
     43  CG1       40.5590   -3.0900  221.2390 C.3    26  ILE26       0.0019
     44  CG2       39.7150   -3.7800  218.9700 C.3    26  ILE26       0.0020
     45  CD1       41.9830   -3.5450  220.9630 C.3    26  ILE26       0.0001
     46  N         36.8330   -3.0550  218.7600 N.am   27  VAL27      -0.1980
     47  CA        35.8420   -3.4310  217.7580 C.3    27  VAL27       0.1595
     48  C         36.3400   -3.4430  216.3150 C.2    27  VAL27       0.2287
     49  O         37.4250   -2.9490  216.0070 O.2    27  VAL27      -0.2864
     50  CB        34.6220   -2.4890  217.8170 C.3    27  VAL27       0.0276
     51  CG1       34.0450   -2.4690  219.2250 C.3    27  VAL27       0.0022
     52  CG2       35.0280   -1.0870  217.3850 C.3    27  VAL27       0.0022
     53  N         37.9200   -5.2510  214.5340 N.3    29  GLN29      -0.1245
     54  CA        39.1850   -5.8880  214.1770 C.3    29  GLN29       0.1566
     55  C         39.1390   -7.3840  214.4970 C.2    29  GLN29       0.2260
     56  O         40.1640   -8.0630  214.4840 O.2    29  GLN29      -0.2867
     57  CB        40.3430   -5.2250  214.9250 C.3    29  GLN29       0.0367
     58  CG        40.4410   -3.7140  214.7400 C.3    29  GLN29       0.0905
     59  CD        40.8230   -3.2950  213.3290 C.2    29  GLN29       0.2608
     60  OE1       40.9940   -2.1080  213.0520 O.2    29  GLN29      -0.2717
     61  NE2       40.9590   -4.2650  212.4330 N.am   29  GLN29      -0.0878
     62  N         46.4030    2.3510  209.1560 N.3    53  PRO53      -0.2103
     63  CA        46.1320    3.7680  209.4300 C.3    53  PRO53       0.1489
     64  C         46.1590    4.1150  210.9160 C.2    53  PRO53       0.2418
     65  O         46.2910    3.2410  211.7740 O.2    53  PRO53      -0.2734
     66  CB        44.7250    3.9730  208.8740 C.3    53  PRO53       0.0282
     67  CG        44.5050    2.8200  207.9720 C.3    53  PRO53       0.0208
     68  CD        45.1970    1.6910  208.6380 C.3    53  PRO53       0.0893
     69  N         46.0420    5.4090  211.2390 N.am   54  PRO54      -0.2718
     70  CA        46.0420    5.8140  212.6420 C.3    54  PRO54       0.1535
     71  C         44.5840    5.8520  213.1110 C.2    54  PRO54       0.2599
     72  O         43.6750    6.0350  212.2960 O.2    54  PRO54      -0.2715
     73  CB        46.6700    7.2010  212.5940 C.3    54  PRO54       0.0310
     74  CG        46.0870    7.7550  211.3360 C.3    54  PRO54       0.0237
     75  CD        46.2040    6.5830  210.3590 C.3    54  PRO54       0.0939
     76  N         44.3620    5.6590  214.4070 N.am   55  GLY55      -0.1941
     77  CA        43.0170    5.6960  214.9480 C.3    55  GLY55       0.2014
     78  C         42.0800    4.5620  214.5800 C.2    55  GLY55       0.2639
     79  O         40.8700    4.7640  214.5610 O.2    55  GLY55      -0.2714
     80  N         42.6090    3.3730  214.3080 N.am   56  VAL56      -0.1963
     81  CA        41.7560    2.2380  213.9430 C.3    56  VAL56       0.1727
     82  C         41.9360    0.9870  214.8230 C.2    56  VAL56       0.2617
     83  O         41.2680   -0.0300  214.6210 O.2    56  VAL56      -0.2715
     84  CB        41.9730    1.8460  212.4590 C.3    56  VAL56       0.0290
     85  CG1       41.6230    3.0260  211.5600 C.3    56  VAL56       0.0023
     86  CG2       43.4220    1.4200  212.2350 C.3    56  VAL56       0.0023
     87  N         42.8420    1.0600  215.7940 N.am   57  GLY57      -0.1940
     88  CA        43.0510   -0.0740  216.6770 C.3    57  GLY57       0.2014
     89  C         44.4570   -0.2880  217.2170 C.2    57  GLY57       0.2639
     90  O         44.6460   -0.4300  218.4200 O.2    57  GLY57      -0.2714
     91  N         45.4390   -0.3120  216.3240 N.am   58  LYS58      -0.1963
     92  CA        46.8330   -0.5410  216.6820 C.3    58  LYS58       0.1728
     93  C         47.2800   -0.2810  218.1310 C.2    58  LYS58       0.2617
     94  O         47.4540   -1.2300  218.8990 O.2    58  LYS58      -0.2715
     95  CB        47.7230    0.2200  215.7010 C.3    58  LYS58       0.0311
     96  CG        47.6820   -0.3770  214.3020 C.3    58  LYS58       0.0038
     97  CD        47.9490    0.6620  213.2340 C.3    58  LYS58       0.0206
     98  CE        49.3070    1.3020  213.3940 C.3    58  LYS58       0.1093
     99  NZ        49.4210    2.4960  212.5180 N.3    58  LYS58      -0.1314
    100  N         47.4680    0.9790  218.5140 N.am   59  THR59      -0.1937
    101  CA        47.9190    1.2780  219.8750 C.3    59  THR59       0.2028
    102  C         46.8950    0.9560  220.9730 C.2    59  THR59       0.2642
    103  O         47.2610    0.7870  222.1310 O.2    59  THR59      -0.2714
    104  CB        48.3680    2.7580  220.0260 C.3    59  THR59       0.1808
    105  OG1       47.2250    3.5980  220.1670 O.3    59  THR59      -0.2208
    106  CG2       49.1610    3.2040  218.8150 C.3    59  THR59       0.0379
    107  N         45.6180    0.8850  220.6230 N.am   60  THR60      -0.1950
    108  CA        44.6050    0.5480  221.6100 C.3    60  THR60       0.1897
    109  C         44.8810   -0.9030  221.9730 C.2    60  THR60       0.2313
    110  O         44.8790   -1.2780  223.1450 O.2    60  THR60      -0.2863
    111  CB        43.1690    0.6660  221.0350 C.3    60  THR60       0.1794
    112  OG1       42.8020    2.0460  220.9310 O.3    60  THR60      -0.2208
    113  CG2       42.1660   -0.0430  221.9330 C.3    60  THR60       0.0378
    114  N         56.0200    3.2400  218.6090 N.3   116  ASP116     -0.1239
    115  CA        54.9890    3.8040  217.7420 C.3   116  ASP116      0.1674
    116  C         55.6140    4.6730  216.6540 C.2   116  ASP116      0.2266
    117  O         56.6430    5.3170  216.8770 O.2   116  ASP116     -0.2867
    118  CB        54.0120    4.6310  218.5680 C.3   116  ASP116      0.1410
    119  CG        52.8450    5.1340  217.7520 C.2   116  ASP116      0.3668
    120  OD1       52.1260    4.3020  217.1530 O.co2 116  ASP116     -0.2456
    121  OD2       52.6440    6.3640  217.7150 O.co2 116  ASP116     -0.2456
    122  N         54.6660   -0.1890  215.5940 N.3   145  SER145     -0.1217
    123  CA        53.5190    0.4000  214.9090 C.3   145  SER145      0.1889
    124  C         54.0210    1.1790  213.6990 C.2   145  SER145      0.2288
    125  O         55.0290    1.8830  213.7830 O.2   145  SER145     -0.2866
    126  CB        52.7590    1.3410  215.8420 C.3   145  SER145      0.2089
    127  OG        51.6560    1.9380  215.1780 O.3   145  SER145     -0.2183
    128  N         37.4660    1.0900  210.1700 N.3   168  LEU168     -0.1245
    129  CA        36.3110    0.5260  210.8460 C.3   168  LEU168      0.1561
    130  C         35.0290    0.9100  210.1210 C.2   168  LEU168      0.2260
    131  O         34.9660    1.9430  209.4530 O.2   168  LEU168     -0.2867
    132  CB        36.2420    1.0380  212.2870 C.3   168  LEU168      0.0270
    133  CG        37.4840    0.8950  213.1680 C.3   168  LEU168      0.0019
    134  CD1       37.2350    1.6090  214.4820 C.3   168  LEU168      0.0001
    135  CD2       37.8100   -0.5700  213.4000 C.3   168  LEU168      0.0001
    136  N         30.2140    3.6170  219.5390 N.3   176  ARG176     -0.1245
    137  CA        31.1260    4.3130  220.4360 C.3   176  ARG176      0.1563
    138  C         30.7190    5.7720  220.6160 C.2   176  ARG176      0.2260
    139  O         30.7520    6.2970  221.7290 O.2   176  ARG176     -0.2867
    140  CB        32.5530    4.2660  219.8950 C.3   176  ARG176      0.0307
    141  CG        33.5170    5.1290  220.6860 C.3   176  ARG176      0.0489
    142  CD        33.5060    4.7040  222.1330 C.3   176  ARG176      0.2205
    143  NE        33.6370    3.2570  222.2070 N.pl3 176  ARG176     -0.0865
    144  CZ        34.6890    2.5910  221.7550 C.cat 176  ARG176      0.5346
    145  NH1       35.6970    3.2550  221.2110 N.pl3 176  ARG176      0.1354
    146  NH2       34.7220    1.2680  221.8260 N.pl3 176  ARG176      0.1354
    147  N         38.3480    5.9890  213.8910 N.3   204  MET204     -0.1230
    148  CA        37.7390    6.1940  215.2010 C.3   204  MET204      0.1702
    149  C         38.2500    7.4490  215.9130 C.2   204  MET204      0.2592
    150  O         37.4650    8.3150  216.3050 O.2   204  MET204     -0.2718
    151  CB        38.0040    4.9700  216.0720 C.3   204  MET204      0.0401
    152  CG        37.3240    4.9860  217.4300 C.3   204  MET204      0.0596
    153  SD        35.6200    4.4560  217.3520 S.3   204  MET204     -0.1393
    154  CE        34.7890    6.0370  217.5500 C.3   204  MET204      0.0692
    155  N         39.5650    7.5380  216.0880 N.am  205  ARG205     -0.1980
    156  CA        40.1560    8.6890  216.7570 C.3   205  ARG205      0.1597
    157  C         39.5930    9.9870  216.1930 C.2   205  ARG205      0.2287
    158  O         39.1710   10.8650  216.9390 O.2   205  ARG205     -0.2864
    159  CB        41.6730    8.6960  216.5870 C.3   205  ARG205      0.0334
    160  CG        42.3340    9.7630  217.4260 C.3   205  ARG205      0.0492
    161  CD        43.7080   10.0850  216.9340 C.3   205  ARG205      0.2205
    162  NE        44.5650    8.9090  216.8900 N.pl3 205  ARG205     -0.0865
    163  CZ        45.7990    8.9110  216.3930 C.cat 205  ARG205      0.5346
    164  NH1       46.3180   10.0310  215.8970 N.pl3 205  ARG205      0.1354
    165  NH2       46.5170    7.7970  216.3900 N.pl3 205  ARG205      0.1354
    166  N         36.0270   10.7950  217.2020 N.3   208  ILE208     -0.1245
    167  CA        36.0120   11.2510  218.5870 C.3   208  ILE208      0.1561
    168  C         36.4440   12.7140  218.6570 C.2   208  ILE208      0.2260
    169  O         35.7540   13.5450  219.2510 O.2   208  ILE208     -0.2867
    170  CB        36.9750   10.4170  219.4820 C.3   208  ILE208      0.0252
    171  CG1       36.5180    8.9600  219.5440 C.3   208  ILE208      0.0019
    172  CG2       37.0250   10.9990  220.8980 C.3   208  ILE208      0.0019
    173  CD1       37.4780    8.0780  220.2950 C.3   208  ILE208      0.0001
@<TRIPOS>BOND
     1    67    68    1
     2    67    66    1
     3    68    62    1
     4    66    63    1
     5    62    63    1
     6    63    64    1
     7   131   130    2
     8   130   129    1
     9   128   129    1
    10    75    69    1
    11    75    74    1
    12   129   132    1
    13    64    69   am
    14    64    65    2
    15    69    70    1
    16    74    73    1
    17    85    84    1
    18    86    84    1
    19   132   133    1
    20    72    71    2
    21    61    59   am
    22    84    81    1
    23    99    98    1
    24    73    70    1
    25    70    71    1
    26    60    59    2
    27    71    76   am
    28   133   135    1
    29   133   134    1
    30    97    98    1
    31    97    96    1
    32    59    58    1
    33   124   125    2
    34   124   123    1
    35   147   148    1
    36    81    80    1
    37    81    82    1
    38    54    55    1
    39    54    53    1
    40    54    57    1
    41    96    95    1
    42    80    78   am
    43    76    77    1
    44    56    55    2
    45    79    78    2
    46    78    77    1
    47    83    82    2
    48    58    57    1
    49    82    87   am
    50   123   122    1
    51   123   126    1
    52   127   126    1
    53   148   149    1
    54   148   151    1
    55    95    92    1
    56    87    88    1
    57   164   163    1
    58   149   155   am
    59   149   150    2
    60    49    48    2
    61   151   152    1
    62   155   156    1
    63   157   156    1
    64   157   158    2
    65    48    47    1
    66    91    92    1
    67    91    89   am
    68   165   163    1
    69   163   162    2
    70   159   156    1
    71   159   160    1
    72   116   117    2
    73   116   115    1
    74    88    89    1
    75    92    93    1
    76   162   161    1
    77   161   160    1
    78   120   119   ar
    79   166   167    1
    80    89    90    2
    81   153   152    1
    82   153   154    1
    83    52    50    1
    84   121   119   ar
    85   115   118    1
    86   115   114    1
    87   119   118    1
    88    47    50    1
    89    47    46    1
    90    50    51    1
    91    93   100   am
    92    93    94    2
    93   100   101    1
    94   167   168    1
    95   167   170    1
    96   168   169    2
    97    46    40   am
    98   106   104    1
    99    44    42    1
   100   170   171    1
   101   170   172    1
   102   136   137    1
   103   171   173    1
   104    40    41    2
   105    40    39    1
   106   101   104    1
   107   101   102    1
   108   140   137    1
   109   140   141    1
   110   104   105    1
   111   137   138    1
   112    42    39    1
   113    42    43    1
   114   138   139    2
   115   107   102   am
   116   107   108    1
   117     7     5    1
   118   141   142    1
   119    39    38    1
   120   112   111    1
   121    45    43    1
   122   102   103    2
   123   111   108    1
   124   111   113    1
   125     6     5    1
   126   145   144    1
   127   108   109    1
   128     5     2    1
   129   144   146    1
   130   144   143    2
   131   109   110    2
   132    30    28    1
   133   142   143    1
   134     2     1    1
   135     2     3    1
   136    28    27    2
   137    28    29    1
   138    27    26    1
   139    36    37    1
   140    36    35    1
   141    37    31    1
   142     4     3    2
   143    35    32    1
   144    25    26    1
   145    25    24    1
   146    31    32    1
   147    31    22   am
   148    24    21    1
   149    21    22    1
   150    21    20    1
   151    11    10    2
   152    32    33    1
   153    22    23    2
   154    10    20   am
   155    10     9    1
   156    12     9    1
   157    12    13    1
   158    34    33    2
   159     9     8    1
   160    13    14   ar
   161    13    15   ar
   162    14    16   ar
   163    15    17   ar
   164    16    18   ar
   165    17    18   ar
   166    18    19    1
