@<TRIPOS>MOLECULE
tmp/1iqqA00.pdb
 100 95 0 0 0
SMALL
GASTEIGER

@<TRIPOS>ATOM
      1  N        -15.8090  -18.9820   22.7580 N.3    28  LYS28      -0.1231
      2  CA       -16.8350  -19.1540   21.6950 C.3    28  LYS28       0.1693
      3  C        -16.7680  -17.9130   20.7830 C.2    28  LYS28       0.2591
      4  O        -17.7270  -17.1280   20.6240 O.2    28  LYS28      -0.2718
      5  CB       -18.2160  -19.2870   22.3600 C.3    28  LYS28       0.0285
      6  CG       -18.3580  -20.6580   23.0860 C.3    28  LYS28       0.0035
      7  CD       -19.7820  -20.9340   23.6150 C.3    28  LYS28       0.0206
      8  CE       -19.7950  -22.2290   24.4260 C.3    28  LYS28       0.1093
      9  NZ       -21.1040  -22.4250   25.1440 N.3    28  LYS28      -0.1314
     10  N        -15.6080  -17.7880   20.1340 N.am   29  LEU29      -0.1980
     11  CA       -15.2910  -16.6420   19.3130 C.3    29  LEU29       0.1596
     12  C        -14.5560  -17.0490   18.0360 C.2    29  LEU29       0.2287
     13  O        -13.8290  -18.0430   18.0120 O.2    29  LEU29      -0.2864
     14  CB       -14.3330  -15.6740   20.0530 C.3    29  LEU29       0.0297
     15  CG       -15.0180  -14.9260   21.2100 C.3    29  LEU29       0.0022
     16  CD1      -13.9710  -14.1850   22.0420 C.3    29  LEU29       0.0001
     17  CD2      -16.0130  -13.9390   20.6980 C.3    29  LEU29       0.0001
     18  N         -4.8190  -11.7820   21.4500 N.3    66  ILE66      -0.1231
     19  CA        -6.2760  -11.6880   21.4880 C.3    66  ILE66       0.1692
     20  C         -6.9430  -11.9350   20.1460 C.2    66  ILE66       0.2591
     21  O         -7.9660  -12.6340   20.1120 O.2    66  ILE66      -0.2718
     22  CB        -6.7200  -10.2930   22.0410 C.3    66  ILE66       0.0266
     23  CG1       -6.2300  -10.1660   23.4840 C.3    66  ILE66       0.0019
     24  CG2       -8.2920  -10.0820   21.9480 C.3    66  ILE66       0.0020
     25  CD1       -6.3020   -8.7000   23.9860 C.3    66  ILE66       0.0001
     26  N         -6.3330  -11.4560   19.0610 N.am   67  ILE67      -0.1980
     27  CA        -7.0060  -11.4840   17.7410 C.3    67  ILE67       0.1595
     28  C         -6.5080  -12.6470   16.9310 C.2    67  ILE67       0.2287
     29  O         -7.2600  -13.1490   16.0460 O.2    67  ILE67      -0.2864
     30  CB        -6.7010  -10.1400   16.9860 C.3    67  ILE67       0.0276
     31  CG1       -7.4910   -9.0130   17.6590 C.3    67  ILE67       0.0022
     32  CG2       -7.0920  -10.2260   15.4800 C.3    67  ILE67       0.0022
     33  CD1       -6.9800   -7.6570   17.2190 C.3    67  ILE67       0.0001
     34  N         -9.7090   -6.7540   11.2530 N.3   110  TYR110     -0.1227
     35  CA       -10.5570   -7.3290   12.2700 C.3   110  TYR110      0.1736
     36  C        -11.2560   -6.3090   13.1690 C.2   110  TYR110      0.2595
     37  O        -12.4400   -6.4560   13.5050 O.2   110  TYR110     -0.2718
     38  CB        -9.6850   -8.2860   13.1390 C.3   110  TYR110      0.0548
     39  CG       -10.4410   -9.1710   14.0740 C.ar  110  TYR110     -0.0200
     40  CD1      -10.8720  -10.4420   13.6790 C.ar  110  TYR110     -0.0009
     41  CD2      -10.6700   -8.8070   15.3650 C.ar  110  TYR110     -0.0009
     42  CE1      -11.4990  -11.3070   14.5260 C.ar  110  TYR110      0.0417
     43  CE2      -11.3140   -9.6690   16.2780 C.ar  110  TYR110      0.0417
     44  CZ       -11.7180  -10.9320   15.8310 C.ar  110  TYR110      0.1957
     45  OH       -12.2900  -11.7850   16.7530 O.3   110  TYR110     -0.2866
     46  N        -10.5080   -5.2830   13.6000 N.am  111  ILE111     -0.1980
     47  CA       -11.0350   -4.3000   14.5400 C.3   111  ILE111      0.1595
     48  C        -11.5460   -3.0630   13.8000 C.2   111  ILE111      0.2287
     49  O        -12.7770   -2.8680   13.6490 O.2   111  ILE111     -0.2864
     50  CB        -9.8950   -3.8780   15.5480 C.3   111  ILE111      0.0276
     51  CG1       -9.4570   -5.0630   16.3980 C.3   111  ILE111      0.0022
     52  CG2      -10.3980   -2.6850   16.4380 C.3   111  ILE111      0.0022
     53  CD1      -10.6040   -5.7320   17.1830 C.3   111  ILE111      0.0001
     54  N        -14.5160   -8.7210   12.3290 N.3   116  ASN116     -0.1240
     55  CA       -14.6330   -9.7780   13.3620 C.3   116  ASN116      0.1653
     56  C        -15.9360  -10.5640   13.0410 C.2   116  ASN116      0.2266
     57  O        -17.0200  -10.0480   13.1340 O.2   116  ASN116     -0.2867
     58  CB       -14.7200   -9.0450   14.7030 C.3   116  ASN116      0.1155
     59  CG       -15.0530   -9.9700   15.8830 C.2   116  ASN116      0.2627
     60  OD1      -15.3940  -11.1530   15.6850 O.2   116  ASN116     -0.2716
     61  ND2      -14.9510   -9.4070   17.0970 N.am  116  ASN116     -0.0877
     62  N        -17.4190  -12.9440   14.5330 N.3   118  SER118     -0.1202
     63  CA       -18.3980  -13.0990   15.6420 C.3   118  SER118      0.2020
     64  C        -19.3390  -11.8990   15.6880 C.2   118  SER118      0.2618
     65  O        -20.5500  -12.0780   15.9380 O.2   118  SER118     -0.2717
     66  CB       -17.6720  -13.2450   16.9750 C.3   118  SER118      0.2103
     67  OG       -17.0750  -14.5340   16.9970 O.3   118  SER118     -0.2182
     68  N        -18.7640  -10.7060   15.4150 N.am  119  ARG119     -0.1979
     69  CA       -19.5760   -9.5030   15.4460 C.3   119  ARG119      0.1597
     70  C        -20.5490   -9.4140   14.2670 C.2   119  ARG119      0.2287
     71  O        -21.6870   -9.0680   14.4510 O.2   119  ARG119     -0.2864
     72  CB       -18.6310   -8.2860   15.4940 C.3   119  ARG119      0.0334
     73  CG       -19.3470   -6.9460   15.6770 C.3   119  ARG119      0.0492
     74  CD       -18.2560   -5.8070   15.5310 C.3   119  ARG119      0.2205
     75  NE       -18.7910   -4.4870   15.9080 N.pl3 119  ARG119     -0.0865
     76  CZ       -19.4200   -3.6690   15.0670 C.cat 119  ARG119      0.5346
     77  NH1      -19.6030   -4.0130   13.7980 N.pl3 119  ARG119      0.1354
     78  NH2      -19.8630   -2.4940   15.5010 N.pl3 119  ARG119      0.1354
     79  N        -23.3110  -11.7720   15.0160 N.3   122  SER122     -0.1217
     80  CA       -24.1450  -11.2300   16.1030 C.3   122  SER122      0.1889
     81  C        -25.0630  -10.1070   15.6090 C.2   122  SER122      0.2288
     82  O        -26.2240  -10.0280   16.0200 O.2   122  SER122     -0.2866
     83  CB       -23.2240  -10.7110   17.2260 C.3   122  SER122      0.2089
     84  OG       -24.0250  -10.0890   18.2640 O.3   122  SER122     -0.2183
     85  N        -25.8750  -15.8760   17.4210 N.3   127  GLU127     -0.1231
     86  CA       -24.9140  -15.9530   18.5350 C.3   127  GLU127      0.1684
     87  C        -24.4580  -17.4030   18.6230 C.2   127  GLU127      0.2434
     88  O        -25.1770  -18.2910   18.1370 O.2   127  GLU127     -0.2733
     89  CB       -25.6450  -15.5510   19.8030 C.3   127  GLU127      0.0402
     90  CG       -26.2020  -14.1330   19.6980 C.3   127  GLU127      0.1161
     91  CD       -25.0890  -13.0780   19.8200 C.2   127  GLU127      0.3649
     92  OE1      -23.9960  -13.4030   20.3650 O.co2 127  GLU127     -0.2457
     93  OE2      -25.3600  -11.9190   19.4280 O.co2 127  GLU127     -0.2457
     94  N        -23.3050  -17.6740   19.3000 N.am  128  PRO128     -0.2729
     95  CA       -22.7490  -19.0360   19.4430 C.3   128  PRO128      0.1401
     96  C        -23.5090  -19.8140   20.5350 C.2   128  PRO128      0.2269
     97  O        -22.9560  -20.2130   21.5440 O.2   128  PRO128     -0.2865
     98  CB       -21.2740  -18.7960   19.7560 C.3   128  PRO128      0.0296
     99  CG       -21.2910  -17.4410   20.5470 C.3   128  PRO128      0.0237
    100  CD       -22.3520  -16.6580   19.8090 C.3   128  PRO128      0.0939
@<TRIPOS>BOND
     1    34    35    1
     2    35    38    1
     3    35    36    1
     4    54    55    1
     5    56    57    2
     6    56    55    1
     7    38    39    1
     8    36    37    2
     9    36    46   am
    10    55    58    1
    11    46    47    1
    12    49    48    2
    13    40    39   ar
    14    40    42   ar
    15    77    76    1
    16    48    47    1
    17    39    41   ar
    18    70    71    2
    19    70    69    1
    20    42    44   ar
    21    62    63    1
    22    47    50    1
    23    58    59    1
    24    79    80    1
    25    76    78    1
    26    76    75    2
    27    41    43   ar
    28    68    69    1
    29    68    64   am
    30    69    72    1
    31    32    30    1
    32    72    73    1
    33    74    73    1
    34    74    75    1
    35    50    51    1
    36    50    52    1
    37    81    82    2
    38    81    80    1
    39    63    64    1
    40    63    66    1
    41    60    59    2
    42    64    65    2
    43    44    43   ar
    44    44    45    1
    45    59    61   am
    46    29    28    2
    47    80    83    1
    48    51    53    1
    49    28    27    1
    50    66    67    1
    51    30    31    1
    52    30    27    1
    53    33    31    1
    54    83    84    1
    55    85    86    1
    56    27    26    1
    57    13    12    2
    58    12    11    1
    59    88    87    2
    60    86    87    1
    61    86    89    1
    62    87    94   am
    63    26    20   am
    64    94    95    1
    65    94   100    1
    66    11    14    1
    67    11    10    1
    68    93    91   ar
    69    95    98    1
    70    95    96    1
    71    90    89    1
    72    90    91    1
    73    98    99    1
    74   100    99    1
    75    91    92   ar
    76    14    15    1
    77    21    20    2
    78    10     3   am
    79    20    19    1
    80    96    97    2
    81     4     3    2
    82    17    15    1
    83     3     2    1
    84    15    16    1
    85    18    19    1
    86    19    22    1
    87     2     5    1
    88     2     1    1
    89    24    22    1
    90    22    23    1
    91     5     6    1
    92     6     7    1
    93    23    25    1
    94     7     8    1
    95     8     9    1
