@<TRIPOS>MOLECULE
tmp/1ir3A01.pdb
 151 140 0 0 0
SMALL
GASTEIGER

@<TRIPOS>ATOM
      1  N        -21.3990   24.4620    0.2820 N.3    22  LEU22      -0.1231
      2  CA       -20.7240   25.6350    0.8200 C.3    22  LEU22       0.1693
      3  C        -20.5030   25.3920    2.3010 C.2    22  LEU22       0.2593
      4  O        -19.5040   25.8080    2.8660 O.2    22  LEU22      -0.2718
      5  CB       -21.5810   26.8890    0.6410 C.3    22  LEU22       0.0284
      6  CG       -21.6050   27.5290   -0.7410 C.3    22  LEU22       0.0019
      7  CD1      -22.6660   28.6100   -0.7650 C.3    22  LEU22       0.0001
      8  CD2      -20.2430   28.1100   -1.0720 C.3    22  LEU22       0.0001
      9  N        -21.4470   24.7120    2.9310 N.am   23  GLY23      -0.1942
     10  CA       -21.3050   24.4320    4.3420 C.3    23  GLY23       0.2014
     11  C        -22.4840   23.6640    4.8780 C.2    23  GLY23       0.2639
     12  O        -23.5030   23.5060    4.2100 O.2    23  GLY23      -0.2714
     13  N        -22.3380   23.1890    6.1030 N.am   24  GLN24      -0.1963
     14  CA       -23.3820   22.4330    6.7460 C.3    24  GLN24       0.1733
     15  C        -23.8170   23.1570    8.0050 C.2    24  GLN24       0.2617
     16  O        -22.9900   23.5050    8.8510 O.2    24  GLN24      -0.2715
     17  CB       -22.8670   21.0370    7.0700 C.3    24  GLN24       0.0408
     18  CG       -23.9320   20.0900    7.5640 C.3    24  GLN24       0.0908
     19  CD       -23.4360   18.6710    7.5690 C.2    24  GLN24       0.2608
     20  OE1      -22.4930   18.3370    8.2870 O.2    24  GLN24      -0.2717
     21  NE2      -24.0490   17.8260    6.7490 N.am   24  GLN24      -0.0878
     22  N        -25.1180   23.3980    8.1150 N.am   25  GLY25      -0.1940
     23  CA       -25.6470   24.0640    9.2870 C.3    25  GLY25       0.2014
     24  C        -26.0360   22.9990   10.2860 C.2    25  GLY25       0.2640
     25  O        -25.8360   21.8100   10.0330 O.2    25  GLY25      -0.2714
     26  N        -26.5960   23.4090   11.4160 N.am   26  SER26      -0.1935
     27  CA       -27.0200   22.4630   12.4420 C.3    26  SER26       0.2055
     28  C        -28.1720   21.5440   11.9970 C.2    26  SER26       0.2643
     29  O        -28.2670   20.4040   12.4490 O.2    26  SER26      -0.2714
     30  CB       -27.4090   23.2150   13.7190 C.3    26  SER26       0.2130
     31  OG       -28.4120   24.1900   13.4680 O.3    26  SER26      -0.2179
     32  N        -29.0370   22.0330   11.1140 N.am   27  PHE27      -0.1973
     33  CA       -30.1800   21.2460   10.6510 C.3    27  PHE27       0.1639
     34  C        -30.4160   21.3140    9.1490 C.2    27  PHE27       0.2290
     35  O        -31.5350   21.0890    8.6830 O.2    27  PHE27      -0.2864
     36  CB       -31.4580   21.6810   11.3860 C.3    27  PHE27       0.0560
     37  CG       -31.7490   23.1600   11.2940 C.ar   27  PHE27      -0.0200
     38  CD1      -32.3780   23.6970   10.1730 C.ar   27  PHE27      -0.0042
     39  CD2      -31.3840   24.0140   12.3290 C.ar   27  PHE27      -0.0042
     40  CE1      -32.6390   25.0640   10.0830 C.ar   27  PHE27      -0.0003
     41  CE2      -31.6390   25.3800   12.2510 C.ar   27  PHE27      -0.0003
     42  CZ       -32.2680   25.9080   11.1250 C.ar   27  PHE27      -0.0000
     43  N        -26.0510   24.1150    3.0570 N.3    30  VAL30      -0.1245
     44  CA       -26.0110   25.3230    2.2380 C.3    30  VAL30       0.1561
     45  C        -25.1890   24.9620    1.0050 C.2    30  VAL30       0.2260
     46  O        -24.0540   24.4800    1.1300 O.2    30  VAL30      -0.2867
     47  CB       -25.3700   26.5280    2.9690 C.3    30  VAL30       0.0252
     48  CG1      -25.3590   27.7520    2.0480 C.3    30  VAL30       0.0019
     49  CG2      -26.1340   26.8340    4.2580 C.3    30  VAL30       0.0019
     50  N        -26.7920   31.0980   -3.0650 N.3    48  ALA48      -0.1245
     51  CA       -26.4990   30.1690   -1.9930 C.3    48  ALA48       0.1562
     52  C        -27.8980   29.6310   -1.7080 C.2    48  ALA48       0.2260
     53  O        -28.8640   30.4010   -1.6260 O.2    48  ALA48      -0.2867
     54  CB       -25.9440   30.8910   -0.7810 C.3    48  ALA48       0.0290
     55  N        -30.1270   27.1980    0.8820 N.3    50  LYS50      -0.1245
     56  CA       -30.1930   26.4590    2.1240 C.3    50  LYS50       0.1561
     57  C        -31.3770   25.5020    2.1260 C.2    50  LYS50       0.2260
     58  O        -32.4720   25.8460    1.6860 O.2    50  LYS50      -0.2867
     59  CB       -30.2920   27.4080    3.3120 C.3    50  LYS50       0.0271
     60  CG       -30.5270   26.6610    4.6220 C.3    50  LYS50       0.0035
     61  CD       -29.8230   27.3100    5.7870 C.3    50  LYS50       0.0206
     62  CE       -30.1520   26.5790    7.0820 C.3    50  LYS50       0.1093
     63  NZ       -29.5600   27.2810    8.2470 N.3    50  LYS50      -0.1314
     64  N        -36.3780   32.7790   10.6040 N.3    67  GLU67      -0.1245
     65  CA       -35.1960   33.2270    9.8970 C.3    67  GLU67       0.1567
     66  C        -35.5130   33.7320    8.4910 C.2    67  GLU67       0.2260
     67  O        -35.1180   34.8360    8.1050 O.2    67  GLU67      -0.2867
     68  CB       -34.1960   32.0740    9.8400 C.3    67  GLU67       0.0388
     69  CG       -32.8470   32.4590    9.3060 C.3    67  GLU67       0.1160
     70  CD       -31.8010   31.3740    9.4930 C.2    67  GLU67       0.3649
     71  OE1      -32.0330   30.4330   10.2820 O.co2  67  GLU67      -0.2457
     72  OE2      -30.7400   31.4690    8.8500 O.co2  67  GLU67      -0.2457
     73  N        -27.2870   40.0520    4.4400 N.3    80  VAL80      -0.1245
     74  CA       -27.4800   39.0330    3.4090 C.3    80  VAL80       0.1561
     75  C        -28.9290   39.0270    2.9120 C.2    80  VAL80       0.2260
     76  O        -29.8700   38.9040    3.6880 O.2    80  VAL80      -0.2867
     77  CB       -27.0560   37.6200    3.9030 C.3    80  VAL80       0.0252
     78  CG1      -27.3140   36.5840    2.8150 C.3    80  VAL80       0.0019
     79  CG2      -25.5570   37.6230    4.2810 C.3    80  VAL80       0.0019
     80  N        -30.6520   32.5290   -1.3810 N.3    96  MET96      -0.1230
     81  CA       -30.0660   33.7820   -0.8820 C.3    96  MET96       0.1702
     82  C        -28.9500   34.2700   -1.7970 C.2    96  MET96       0.2592
     83  O        -28.5210   33.5490   -2.7000 O.2    96  MET96      -0.2718
     84  CB       -29.4560   33.5330    0.5020 C.3    96  MET96       0.0401
     85  CG       -30.4400   33.0740    1.5710 C.3    96  MET96       0.0596
     86  SD       -29.5990   32.2230    2.9380 S.3    96  MET96      -0.1393
     87  CE       -28.5170   33.4450    3.4710 C.3    96  MET96       0.0692
     88  N        -28.4650   35.4920   -1.5710 N.am   97  GLU97      -0.1979
     89  CA       -27.3610   35.9910   -2.3850 C.3    97  GLU97       0.1602
     90  C        -26.1310   35.1640   -1.9960 C.2    97  GLU97       0.2287
     91  O        -25.9780   34.7690   -0.8370 O.2    97  GLU97      -0.2864
     92  CB       -27.1110   37.4920   -2.1500 C.3    97  GLU97       0.0415
     93  CG       -26.1930   37.8290   -0.9930 C.3    97  GLU97       0.1163
     94  CD       -26.0430   39.3280   -0.7970 C.2    97  GLU97       0.3649
     95  OE1      -25.2220   39.9570   -1.4870 O.co2  97  GLU97      -0.2457
     96  OE2      -26.7460   39.8790    0.0640 O.co2  97  GLU97      -0.2457
     97  N        -22.4300   34.5190   -0.9670 N.3    99  MET99      -0.1245
     98  CA       -21.3350   35.2070   -0.2850 C.3    99  MET99       0.1570
     99  C        -20.1930   34.2180   -0.5590 C.2    99  MET99       0.2261
    100  O        -19.9460   33.3100    0.2250 O.2    99  MET99      -0.2867
    101  CB       -21.6310   35.3330    1.2080 C.3    99  MET99       0.0387
    102  CG       -22.8920   36.1550    1.5050 C.3    99  MET99       0.0595
    103  SD       -22.8080   37.8340    0.8280 S.3    99  MET99      -0.1393
    104  CE       -21.7760   38.5890    2.0550 C.3    99  MET99       0.0692
    105  N        -17.7430   32.6170    2.0080 N.3   102  GLY102     -0.1210
    106  CA       -18.3390   32.0110    3.1860 C.3   102  GLY102      0.1956
    107  C        -18.4130   32.8840    4.4250 C.2   102  GLY102      0.2611
    108  O        -18.4420   34.1100    4.3320 O.2   102  GLY102     -0.2717
    109  N        -18.4630   32.2380    5.5850 N.am  103  ASP103     -0.1973
    110  CA       -18.5630   32.9390    6.8570 C.3   103  ASP103      0.1709
    111  C        -17.2360   33.5430    7.2790 C.2   103  ASP103      0.2293
    112  O        -16.1710   33.0070    6.9670 O.2   103  ASP103     -0.2864
    113  CB       -19.0700   31.9890    7.9340 C.3   103  ASP103      0.1436
    114  CG       -18.0970   30.8790    8.2210 C.2   103  ASP103      0.3671
    115  OD1      -17.9910   29.9460    7.4020 O.co2 103  ASP103     -0.2456
    116  OD2      -17.4180   30.9560    9.2550 O.co2 103  ASP103     -0.2456
    117  N        -18.9050   33.7170   12.8610 N.3   156  ARG156     -0.1231
    118  CA       -19.4890   32.5860   12.1290 C.3   156  ARG156      0.1694
    119  C        -20.7770   33.0040   11.4060 C.2   156  ARG156      0.2592
    120  O        -21.1550   32.4130   10.3990 O.2   156  ARG156     -0.2718
    121  CB       -19.7970   31.4230   13.0920 C.3   156  ARG156      0.0321
    122  CG       -20.8180   31.7720   14.1800 C.3   156  ARG156      0.0489
    123  CD       -21.1470   30.6020   15.1000 C.3   156  ARG156      0.2205
    124  NE       -22.0600   31.0220   16.1720 N.pl3 156  ARG156     -0.0865
    125  CZ       -21.6770   31.5960   17.3130 C.cat 156  ARG156      0.5346
    126  NH1      -20.3890   31.8140   17.5570 N.pl3 156  ARG156      0.1354
    127  NH2      -22.5820   32.0440   18.1700 N.pl3 156  ARG156      0.1354
    128  N        -21.4310   34.0390   11.9280 N.am  157  ASN157     -0.1974
    129  CA       -22.6840   34.5310   11.3690 C.3   157  ASN157      0.1688
    130  C        -22.5960   35.7610   10.4800 C.2   157  ASN157      0.2292
    131  O        -23.6140   36.3060   10.0710 O.2   157  ASN157     -0.2864
    132  CB       -23.7180   34.6910   12.4880 C.3   157  ASN157      0.1181
    133  CG       -24.1480   33.3470   13.0560 C.2   157  ASN157      0.2629
    134  OD1      -24.0650   32.3340   12.3660 O.2   157  ASN157     -0.2716
    135  ND2      -24.5710   33.3210   14.3130 N.am  157  ASN157     -0.0877
    136  N        -21.0280   37.0500    6.8430 N.3   159  MET159     -0.1245
    137  CA       -20.5930   36.4360    5.5900 C.3   159  MET159      0.1570
    138  C        -19.7160   37.3900    4.7710 C.2   159  MET159      0.2261
    139  O        -19.8240   38.6030    4.9000 O.2   159  MET159     -0.2867
    140  CB       -21.8070   35.9870    4.7690 C.3   159  MET159      0.0387
    141  CG       -22.7890   35.0710    5.5070 C.3   159  MET159      0.0595
    142  SD       -22.1100   33.4470    5.8640 S.3   159  MET159     -0.1393
    143  CE       -22.6350   33.2190    7.5200 C.3   159  MET159      0.0692
    144  N        -27.5020   34.8310    9.3480 N.3   170  ASP170     -0.1239
    145  CA       -28.1020   34.0090   10.3970 C.3   170  ASP170      0.1674
    146  C        -29.0710   34.7370   11.3190 C.2   170  ASP170      0.2266
    147  O        -28.7090   35.1930   12.4070 O.2   170  ASP170     -0.2867
    148  CB       -27.0420   33.2670   11.2180 C.3   170  ASP170      0.1410
    149  CG       -27.6170   32.0620   11.9720 C.2   170  ASP170      0.3668
    150  OD1      -28.8550   31.9310   12.0610 O.co2 170  ASP170     -0.2456
    151  OD2      -26.8300   31.2340   12.4760 O.co2 170  ASP170     -0.2456
@<TRIPOS>BOND
     1    50    51    1
     2    83    82    2
     3    89    92    1
     4    89    90    1
     5    89    88    1
     6    92    93    1
     7    90    91    2
     8    51    52    1
     9    51    54    1
    10    82    88   am
    11    82    81    1
    12    52    53    2
    13    95    94   ar
    14    80    81    1
    15     8     6    1
    16    93    94    1
    17    97    98    1
    18    81    84    1
    19    94    96   ar
    20     7     6    1
    21     6     5    1
    22    99    98    1
    23    99   100    2
    24    98   101    1
    25     1     2    1
    26    84    85    1
    27     5     2    1
    28     2     3    1
    29   103   102    1
    30   103   104    1
    31    55    56    1
    32    45    46    2
    33    45    44    1
    34   101   102    1
    35    85    86    1
    36    58    57    2
    37   105   106    1
    38    48    47    1
    39    56    57    1
    40    56    59    1
    41    44    47    1
    42    44    43    1
    43     3     4    2
    44     3     9   am
    45    78    77    1
    46    75    74    1
    47    75    76    2
    48     9    10    1
    49    86    87    1
    50    47    49    1
    51   106   107    1
    52    59    60    1
    53    74    77    1
    54    74    73    1
    55    77    79    1
    56    12    11    2
    57   108   107    2
    58    10    11    1
    59   107   109   am
    60    60    61    1
    61   140   141    1
    62   140   137    1
    63   138   139    2
    64   138   137    1
    65    11    13   am
    66   141   142    1
    67   109   110    1
    68   137   136    1
    69    61    62    1
    70   142   143    1
    71    13    14    1
    72    14    17    1
    73    14    15    1
    74    21    19   am
    75   110   111    1
    76   110   113    1
    77   112   111    2
    78    17    18    1
    79    62    63    1
    80   115   114   ar
    81    18    19    1
    82    19    20    2
    83   113   114    1
    84    15    22   am
    85    15    16    2
    86    67    66    2
    87    22    23    1
    88   114   116   ar
    89    66    65    1
    90    35    34    2
    91    72    70   ar
    92    34    33    1
    93    23    24    1
    94    69    70    1
    95    69    68    1
    96   144   145    1
    97    70    71   ar
    98    68    65    1
    99    65    64    1
   100    25    24    2
   101   131   130    2
   102    40    38   ar
   103    40    42   ar
   104    38    37   ar
   105    24    26   am
   106   145   148    1
   107   145   146    1
   108   120   119    2
   109   130   129    1
   110    33    32    1
   111    33    36    1
   112    32    28   am
   113    42    41   ar
   114   148   149    1
   115    37    36    1
   116    37    39   ar
   117   146   147    2
   118   129   128    1
   119   129   132    1
   120   119   128   am
   121   119   118    1
   122    26    27    1
   123   149   150   ar
   124   149   151   ar
   125    28    27    1
   126    28    29    2
   127   118   117    1
   128   118   121    1
   129    41    39   ar
   130   134   133    2
   131    27    30    1
   132   132   133    1
   133   133   135   am
   134   121   122    1
   135    31    30    1
   136   122   123    1
   137   123   124    1
   138   124   125    2
   139   125   126    1
   140   125   127    1
