@<TRIPOS>MOLECULE
tmp/1ir3A00.pdb
 188 179 0 0 0
SMALL
GASTEIGER

@<TRIPOS>ATOM
      1  N        -38.5920   22.3290   16.5060 N.3    59  ARG59      -0.1245
      2  CA       -37.9130   23.5290   16.9910 C.3    59  ARG59       0.1563
      3  C        -37.0440   24.1260   15.8900 C.2    59  ARG59       0.2260
      4  O        -37.0270   25.3410   15.6930 O.2    59  ARG59      -0.2867
      5  CB       -37.0550   23.2050   18.2170 C.3    59  ARG59       0.0307
      6  CG       -36.2180   24.3840   18.6970 C.3    59  ARG59       0.0489
      7  CD       -35.1820   23.9570   19.7230 C.3    59  ARG59       0.2205
      8  NE       -35.5480   24.3540   21.0790 N.pl3  59  ARG59      -0.0865
      9  CZ       -35.5470   23.5350   22.1290 C.cat  59  ARG59       0.5346
     10  NH1      -35.2070   22.2570   21.9890 N.pl3  59  ARG59       0.1354
     11  NH2      -35.8470   24.0050   23.3340 N.pl3  59  ARG59       0.1354
     12  N        -15.6770   33.6690   10.1690 N.3   105  LYS105     -0.1245
     13  CA       -14.8010   32.8640   11.0110 C.3   105  LYS105      0.1561
     14  C        -13.8750   31.9940   10.1580 C.2   105  LYS105      0.2260
     15  O        -12.6600   32.0160   10.3460 O.2   105  LYS105     -0.2867
     16  CB       -15.6000   31.9910   11.9900 C.3   105  LYS105      0.0271
     17  CG       -14.7010   31.1110   12.8420 C.3   105  LYS105      0.0035
     18  CD       -15.4420   30.3950   13.9490 C.3   105  LYS105      0.0206
     19  CE       -14.5390   29.3410   14.5650 C.3   105  LYS105      0.1093
     20  NZ       -15.2420   28.4960   15.5860 N.3   105  LYS105     -0.1314
     21  N        -27.3870   36.8210   18.0330 N.3   152  ASP152     -0.1239
     22  CA       -26.3710   35.8290   17.7120 C.3   152  ASP152      0.1674
     23  C        -25.2960   36.3960   16.7720 C.2   152  ASP152      0.2266
     24  O        -24.8600   35.7290   15.8310 O.2   152  ASP152     -0.2867
     25  CB       -27.0480   34.5770   17.1250 C.3   152  ASP152      0.1410
     26  CG       -26.1530   33.3360   17.1610 C.2   152  ASP152      0.3668
     27  OD1      -25.1480   33.3110   17.8980 O.co2 152  ASP152     -0.2456
     28  OD2      -26.4670   32.3780   16.4230 O.co2 152  ASP152     -0.2456
     29  N        -18.9050   33.7170   12.8610 N.3   156  ARG156     -0.1231
     30  CA       -19.4890   32.5860   12.1290 C.3   156  ARG156      0.1694
     31  C        -20.7770   33.0040   11.4060 C.2   156  ARG156      0.2592
     32  O        -21.1550   32.4130   10.3990 O.2   156  ARG156     -0.2718
     33  CB       -19.7970   31.4230   13.0920 C.3   156  ARG156      0.0321
     34  CG       -20.8180   31.7720   14.1800 C.3   156  ARG156      0.0489
     35  CD       -21.1470   30.6020   15.1000 C.3   156  ARG156      0.2205
     36  NE       -22.0600   31.0220   16.1720 N.pl3 156  ARG156     -0.0865
     37  CZ       -21.6770   31.5960   17.3130 C.cat 156  ARG156      0.5346
     38  NH1      -20.3890   31.8140   17.5570 N.pl3 156  ARG156      0.1354
     39  NH2      -22.5820   32.0440   18.1700 N.pl3 156  ARG156      0.1354
     40  N        -21.4310   34.0390   11.9280 N.am  157  ASN157     -0.1974
     41  CA       -22.6840   34.5310   11.3690 C.3   157  ASN157      0.1688
     42  C        -22.5960   35.7610   10.4800 C.2   157  ASN157      0.2292
     43  O        -23.6140   36.3060   10.0710 O.2   157  ASN157     -0.2864
     44  CB       -23.7180   34.6910   12.4880 C.3   157  ASN157      0.1181
     45  CG       -24.1480   33.3470   13.0560 C.2   157  ASN157      0.2629
     46  OD1      -24.0650   32.3340   12.3660 O.2   157  ASN157     -0.2716
     47  ND2      -24.5710   33.3210   14.3130 N.am  157  ASN157     -0.0877
     48  N        -27.5020   34.8310    9.3480 N.3   170  ASP170     -0.1239
     49  CA       -28.1020   34.0090   10.3970 C.3   170  ASP170      0.1674
     50  C        -29.0710   34.7370   11.3190 C.2   170  ASP170      0.2266
     51  O        -28.7090   35.1930   12.4070 O.2   170  ASP170     -0.2867
     52  CB       -27.0420   33.2670   11.2180 C.3   170  ASP170      0.1410
     53  CG       -27.6170   32.0620   11.9720 C.2   170  ASP170      0.3668
     54  OD1      -28.8550   31.9310   12.0610 O.co2 170  ASP170     -0.2456
     55  OD2      -26.8300   31.2340   12.4760 O.co2 170  ASP170     -0.2456
     56  N        -31.9510   33.5140   15.5410 N.3   173  MET173     -0.1245
     57  CA       -32.2800   33.9790   16.8920 C.3   173  MET173      0.1570
     58  C        -32.8620   35.3930   16.9550 C.2   173  MET173      0.2261
     59  O        -33.1770   35.8850   18.0310 O.2   173  MET173     -0.2867
     60  CB       -31.0470   33.8880   17.7990 C.3   173  MET173      0.0387
     61  CG       -30.6210   32.4560   18.1080 C.3   173  MET173      0.0595
     62  SD       -29.1580   32.3550   19.1870 S.3   173  MET173     -0.1393
     63  CE       -29.8510   32.8660   20.7500 C.3   173  MET173      0.0692
     64  N        -35.9770   36.4070   27.1900 N.3   182  LYS182     -0.1245
     65  CA       -36.0940   34.9970   26.8390 C.3   182  LYS182      0.1561
     66  C        -36.9860   34.2300   27.8030 C.2   182  LYS182      0.2260
     67  O        -36.8640   34.3620   29.0240 O.2   182  LYS182     -0.2867
     68  CB       -34.7120   34.3480   26.7540 C.3   182  LYS182      0.0271
     69  CG       -34.7480   32.8450   26.5410 C.3   182  LYS182      0.0035
     70  CD       -33.4040   32.3020   26.0760 C.3   182  LYS182      0.0206
     71  CE       -33.3080   30.8110   26.3350 C.3   182  LYS182      0.1093
     72  NZ       -32.9940   30.5520   27.7740 N.3   182  LYS182     -0.1314
     73  N        -35.9360   27.5510   28.1740 N.3   185  LYS185     -0.1231
     74  CA       -34.5490   27.1510   28.0140 C.3   185  LYS185      0.1693
     75  C        -34.2540   27.0230   26.5260 C.2   185  LYS185      0.2593
     76  O        -35.1490   26.7290   25.7280 O.2   185  LYS185     -0.2718
     77  CB       -34.2930   25.8120   28.7170 C.3   185  LYS185      0.0285
     78  CG       -34.4160   25.8660   30.1990 C.3   185  LYS185      0.0035
     79  CD       -33.2640   26.5510   30.8680 C.3   185  LYS185      0.0206
     80  CE       -33.4250   26.5650   32.4080 C.3   185  LYS185      0.1093
     81  NZ       -34.3660   27.5760   32.9100 N.3   185  LYS185     -0.1314
     82  N        -32.9950   27.2530   26.1650 N.am  186  GLY186     -0.1942
     83  CA       -32.5860   27.1640   24.7770 C.3   186  GLY186      0.2014
     84  C        -31.0870   27.3160   24.6370 C.2   186  GLY186      0.2639
     85  O        -30.4030   27.6660   25.6060 O.2   186  GLY186     -0.2714
     86  N        -30.5870   27.0670   23.4270 N.am  187  LEU187     -0.1963
     87  CA       -29.1570   27.1570   23.1340 C.3   187  LEU187      0.1728
     88  C        -28.7310   28.5970   22.9430 C.2   187  LEU187      0.2616
     89  O        -29.1780   29.2720   22.0090 O.2   187  LEU187     -0.2715
     90  CB       -28.8100   26.3410   21.8880 C.3   187  LEU187      0.0311
     91  CG       -28.8970   24.8210   22.0580 C.3   187  LEU187      0.0022
     92  CD1      -28.6740   24.1380   20.7170 C.3   187  LEU187      0.0001
     93  CD2      -27.8660   24.3630   23.0740 C.3   187  LEU187      0.0001
     94  N        -27.8610   29.0590   23.8370 N.am  188  LEU188     -0.1964
     95  CA       -27.3720   30.4320   23.8090 C.3   188  LEU188      0.1713
     96  C        -25.8600   30.4940   23.5910 C.2   188  LEU188      0.2458
     97  O        -25.1200   29.6930   24.1410 O.2   188  LEU188     -0.2730
     98  CB       -27.7350   31.1320   25.1230 C.3   188  LEU188      0.0310
     99  CG       -29.2310   31.1970   25.4350 C.3   188  LEU188      0.0022
    100  CD1      -29.4480   31.8720   26.7770 C.3   188  LEU188      0.0001
    101  CD2      -29.9500   31.9500   24.3360 C.3   188  LEU188      0.0001
    102  N        -25.3960   31.4430   22.7610 N.am  189  PRO189     -0.2716
    103  CA       -23.9680   31.6190   22.4620 C.3   189  PRO189      0.1536
    104  C        -23.2610   32.3390   23.6150 C.2   189  PRO189      0.2598
    105  O        -22.8760   33.4970   23.4900 O.2   189  PRO189     -0.2715
    106  CB       -24.0000   32.4690   21.1910 C.3   189  PRO189      0.0310
    107  CG       -25.2070   33.3460   21.4110 C.3   189  PRO189      0.0237
    108  CD       -26.2270   32.3770   21.9700 C.3   189  PRO189      0.0939
    109  N        -23.0950   31.6330   24.7340 N.am  190  VAL190     -0.1964
    110  CA       -22.4840   32.1750   25.9480 C.3   190  VAL190      0.1727
    111  C        -21.2560   33.0840   25.7910 C.2   190  VAL190      0.2616
    112  O        -21.2010   34.1540   26.4020 O.2   190  VAL190     -0.2715
    113  CB       -22.1700   31.0290   26.9620 C.3   190  VAL190      0.0290
    114  CG1      -21.3530   31.5540   28.1430 C.3   190  VAL190      0.0023
    115  CG2      -23.4800   30.4260   27.4750 C.3   190  VAL190      0.0023
    116  N        -20.2860   32.6640   24.9790 N.am  191  ARG191     -0.1963
    117  CA       -19.0500   33.4350   24.7660 C.3   191  ARG191      0.1729
    118  C        -19.2300   34.7770   24.0390 C.2   191  ARG191      0.2616
    119  O        -18.3260   35.6110   24.0330 O.2   191  ARG191     -0.2715
    120  CB       -18.0030   32.5640   24.0630 C.3   191  ARG191      0.0348
    121  CG       -17.5980   31.3330   24.8990 C.3   191  ARG191      0.0492
    122  CD       -16.8090   30.3140   24.0980 C.3   191  ARG191      0.2205
    123  NE       -16.8020   29.0280   24.7970 N.pl3 191  ARG191     -0.0865
    124  CZ       -15.8620   28.6310   25.6480 C.cat 191  ARG191      0.5346
    125  NH1      -14.8140   29.4030   25.9050 N.pl3 191  ARG191      0.1354
    126  NH2      -16.0340   27.5070   26.3360 N.pl3 191  ARG191      0.1354
    127  N        -20.4010   34.9820   23.4360 N.am  192  TRP192     -0.1974
    128  CA       -20.6950   36.2250   22.7280 C.3   192  TRP192      0.1640
    129  C        -21.7110   37.0950   23.4570 C.2   192  TRP192      0.2290
    130  O        -22.0050   38.2050   23.0180 O.2   192  TRP192     -0.2864
    131  CB       -21.2150   35.9200   21.3100 C.3   192  TRP192      0.0576
    132  CG       -20.1470   35.4350   20.3840 C.ar  192  TRP192      0.0006
    133  CD1      -19.4580   36.1820   19.4740 C.ar  192  TRP192      0.0946
    134  CD2      -19.5690   34.1180   20.3430 C.ar  192  TRP192      0.0152
    135  NE1      -18.4810   35.4240   18.8850 N.ar  192  TRP192     -0.2442
    136  CE2      -18.5200   34.1540   19.4010 C.ar  192  TRP192      0.0810
    137  CE3      -19.8330   32.9140   21.0230 C.ar  192  TRP192      0.0012
    138  CZ2      -17.7220   33.0380   19.1150 C.ar  192  TRP192      0.0191
    139  CZ3      -19.0400   31.8010   20.7400 C.ar  192  TRP192      0.0001
    140  CH2      -17.9940   31.8750   19.7940 C.ar  192  TRP192      0.0015
    141  N        -27.6090   39.6880   29.7670 N.3   197  SER197     -0.1202
    142  CA       -28.3390   38.6670   29.0190 C.3   197  SER197      0.2020
    143  C        -28.0890   37.3210   29.6730 C.2   197  SER197      0.2618
    144  O        -28.9920   36.4920   29.7660 O.2   197  SER197     -0.2717
    145  CB       -27.8710   38.5980   27.5640 C.3   197  SER197      0.2103
    146  OG       -28.1090   39.8160   26.8780 O.3   197  SER197     -0.2182
    147  N        -26.8490   37.1090   30.1130 N.am  198  LEU198     -0.1979
    148  CA       -26.4720   35.8750   30.7930 C.3   198  LEU198      0.1596
    149  C        -27.1760   35.7970   32.1520 C.2   198  LEU198      0.2287
    150  O        -27.5260   34.7150   32.6240 O.2   198  LEU198     -0.2864
    151  CB       -24.9550   35.8270   31.0050 C.3   198  LEU198      0.0297
    152  CG       -24.0630   35.6100   29.7820 C.3   198  LEU198      0.0022
    153  CD1      -22.6180   35.9500   30.1440 C.3   198  LEU198      0.0001
    154  CD2      -24.1820   34.1660   29.2700 C.3   198  LEU198      0.0001
    155  N        -10.6810   30.9390   19.5930 N.3   225  GLN225     -0.1245
    156  CA       -11.8630   30.7410   20.4260 C.3   225  GLN225      0.1566
    157  C        -11.8750   31.6640   21.6300 C.2   225  GLN225      0.2260
    158  O        -10.9220   31.6870   22.4070 O.2   225  GLN225     -0.2867
    159  CB       -11.9520   29.2830   20.8970 C.3   225  GLN225      0.0367
    160  CG       -13.1280   28.9690   21.8300 C.3   225  GLN225      0.0905
    161  CD       -14.4940   28.9580   21.1410 C.2   225  GLN225      0.2608
    162  OE1      -15.4720   28.4710   21.7100 O.2   225  GLN225     -0.2717
    163  NE2      -14.5690   29.4880   19.9260 N.am  225  GLN225     -0.0878
    164  N        -18.0590   26.7640   29.0820 N.3   232  ASN232     -0.1225
    165  CA       -19.1750   27.6960   28.9460 C.3   232  ASN232      0.1785
    166  C        -19.6900   28.1550   30.3010 C.2   232  ASN232      0.2597
    167  O        -20.0640   29.3130   30.4710 O.2   232  ASN232     -0.2718
    168  CB       -20.3050   27.0730   28.1190 C.3   232  ASN232      0.1169
    169  CG       -20.0220   27.1150   26.6290 C.2   232  ASN232      0.2627
    170  OD1      -19.3180   28.0060   26.1470 O.2   232  ASN232     -0.2716
    171  ND2      -20.5660   26.1520   25.8870 N.am  232  ASN232     -0.0877
    172  N        -19.7010   27.2440   31.2680 N.am  233  GLU233     -0.1979
    173  CA       -20.1530   27.5630   32.6130 C.3   233  GLU233      0.1602
    174  C        -19.2110   28.5450   33.3140 C.2   233  GLU233      0.2287
    175  O        -19.6560   29.4340   34.0490 O.2   233  GLU233     -0.2864
    176  CB       -20.2900   26.2840   33.4340 C.3   233  GLU233      0.0415
    177  CG       -21.3850   25.3680   32.9350 C.3   233  GLU233      0.1163
    178  CD       -21.5650   24.1540   33.8170 C.2   233  GLU233      0.3649
    179  OE1      -21.8890   24.3240   35.0140 O.co2 233  GLU233     -0.2457
    180  OE2      -21.3850   23.0260   33.3080 O.co2 233  GLU233     -0.2457
    181  N        -19.6800   32.0580   31.6710 N.3   236  LEU236     -0.1245
    182  CA       -20.9220   32.6630   32.1640 C.3   236  LEU236      0.1561
    183  C        -20.6670   33.3690   33.4920 C.2   236  LEU236      0.2260
    184  O        -21.0540   34.5280   33.6860 O.2   236  LEU236     -0.2867
    185  CB       -21.9960   31.5640   32.3200 C.3   236  LEU236      0.0270
    186  CG       -23.3880   31.7950   32.9340 C.3   236  LEU236      0.0019
    187  CD1      -23.3570   31.8980   34.4500 C.3   236  LEU236      0.0001
    188  CD2      -24.0020   33.0210   32.3480 C.3   236  LEU236      0.0001
@<TRIPOS>BOND
     1    48    49    1
     2    43    42    2
     3    14    15    2
     4    14    13    1
     5    12    13    1
     6    49    52    1
     7    49    50    1
     8    32    31    2
     9    42    41    1
    10    13    16    1
    11    52    53    1
    12    50    51    2
    13    41    40    1
    14    41    44    1
    15    31    40   am
    16    31    30    1
    17    53    54   ar
    18    53    55   ar
    19    16    17    1
    20    30    29    1
    21    30    33    1
    22    46    45    2
    23    44    45    1
    24    17    18    1
    25    45    47   am
    26    33    34    1
    27    18    19    1
    28    34    35    1
    29    19    20    1
    30    35    36    1
    31    56    57    1
    32     4     3    2
    33    24    23    2
    34     3     2    1
    35    36    37    2
    36    28    26   ar
    37     1     2    1
    38    23    22    1
    39    57    58    1
    40    57    60    1
    41    58    59    2
    42     2     5    1
    43    25    26    1
    44    25    22    1
    45    26    27   ar
    46    37    38    1
    47    37    39    1
    48    22    21    1
    49    60    61    1
    50    61    62    1
    51     5     6    1
    52     6     7    1
    53   135   136   ar
    54   135   133   ar
    55   138   136   ar
    56   138   140   ar
    57    62    63    1
    58   136   134   ar
    59   133   132   ar
    60   155   156    1
    61     7     8    1
    62   140   139   ar
    63   163   161   am
    64   134   132   ar
    65   134   137   ar
    66   132   131    1
    67   156   159    1
    68   156   157    1
    69    92    91    1
    70   139   137   ar
    71   159   160    1
    72     8     9    2
    73   161   162    2
    74   161   160    1
    75   106   107    1
    76   106   103    1
    77   131   128    1
    78   107   108    1
    79   157   158    2
    80    90    91    1
    81    90    87    1
    82   108   102    1
    83    10     9    1
    84    89    88    2
    85    91    93    1
    86     9    11    1
    87   103   102    1
    88   103   104    1
    89   128   127    1
    90   128   129    1
    91   102    96   am
    92    88    87    1
    93    88    94   am
    94   130   129    2
    95    87    86    1
    96    86    84   am
    97   127   118   am
    98   105   104    2
    99    96    95    1
   100    96    97    2
   101   104   109   am
   102    95    94    1
   103    95    98    1
   104   119   118    2
   105   118   117    1
   106   120   117    1
   107   120   121    1
   108   122   123    1
   109   122   121    1
   110   101    99    1
   111    84    83    1
   112    84    85    2
   113   109   110    1
   114   117   116    1
   115    83    82    1
   116   123   124    2
   117   116   111   am
   118    98    99    1
   119    99   100    1
   120   124   125    1
   121   124   126    1
   122    76    75    2
   123   111   110    1
   124   111   112    2
   125   171   169   am
   126   110   113    1
   127    70    71    1
   128    70    69    1
   129   170   169    2
   130    82    75   am
   131    71    72    1
   132    75    74    1
   133    69    68    1
   134   169   168    1
   135    68    65    1
   136    65    64    1
   137    65    66    1
   138   146   145    1
   139   113   115    1
   140   113   114    1
   141   145   142    1
   142    66    67    2
   143    74    73    1
   144    74    77    1
   145   168   165    1
   146    77    78    1
   147   165   164    1
   148   165   166    1
   149   142   143    1
   150   142   141    1
   151   154   152    1
   152   143   144    2
   153   143   147   am
   154   152   153    1
   155   152   151    1
   156   147   148    1
   157    78    79    1
   158   166   167    2
   159   166   172   am
   160   148   151    1
   161   148   149    1
   162    79    80    1
   163   172   173    1
   164   181   182    1
   165   149   150    2
   166   182   185    1
   167   182   183    1
   168   185   186    1
   169   188   186    1
   170    80    81    1
   171   173   174    1
   172   173   176    1
   173   186   187    1
   174   177   176    1
   175   177   178    1
   176   180   178   ar
   177   174   175    2
   178   183   184    2
   179   178   179   ar
