@<TRIPOS>MOLECULE
tmp/1iraB00.pdb
 101 95 0 0 0
SMALL
GASTEIGER

@<TRIPOS>ATOM
      1  N         50.9900   -5.3330   50.2320 N.3    97  GLU97      -0.1245
      2  CA        52.4130   -5.3730   49.9280 C.3    97  GLU97       0.1567
      3  C         53.0930   -6.4690   50.7540 C.2    97  GLU97       0.2260
      4  O         52.5310   -6.9530   51.7410 O.2    97  GLU97      -0.2867
      5  CB        53.0450   -4.0090   50.2250 C.3    97  GLU97       0.0388
      6  CG        52.5100   -2.8730   49.3700 C.3    97  GLU97       0.1160
      7  CD        53.0170   -1.5230   49.8290 C.2    97  GLU97       0.3649
      8  OE1       54.1100   -1.1130   49.3870 O.co2  97  GLU97      -0.2457
      9  OE2       52.3270   -0.8760   50.6440 O.co2  97  GLU97      -0.2457
     10  N         52.8750   -7.0040   54.6740 N.3   100  LEU100     -0.1245
     11  CA        52.1880   -5.8200   55.1640 C.3   100  LEU100      0.1561
     12  C         50.6930   -6.0730   55.0580 C.2   100  LEU100      0.2260
     13  O         50.2280   -6.6440   54.0780 O.2   100  LEU100     -0.2867
     14  CB        52.5840   -4.6140   54.3220 C.3   100  LEU100      0.0270
     15  CG        52.3540   -3.2460   54.9520 C.3   100  LEU100      0.0019
     16  CD1       53.0960   -3.1570   56.2770 C.3   100  LEU100      0.0001
     17  CD2       52.8320   -2.1680   53.9960 C.3   100  LEU100      0.0001
     18  N         48.3790   -4.1760   54.3160 N.3   102  TYR102     -0.1241
     19  CA        47.7290   -3.2280   53.4100 C.3   102  TYR102      0.1605
     20  C         48.6480   -2.8700   52.2440 C.2   102  TYR102      0.2264
     21  O         49.8000   -3.3120   52.1820 O.2   102  TYR102     -0.2867
     22  CB        47.3380   -1.9390   54.1630 C.3   102  TYR102      0.0534
     23  CG        48.5100   -1.2080   54.7990 C.ar  102  TYR102     -0.0201
     24  CD1       49.3240   -0.3540   54.0470 C.ar  102  TYR102     -0.0009
     25  CD2       48.8310   -1.4060   56.1430 C.ar  102  TYR102     -0.0009
     26  CE1       50.4340    0.2770   54.6180 C.ar  102  TYR102      0.0417
     27  CE2       49.9330   -0.7820   56.7220 C.ar  102  TYR102      0.0417
     28  CZ        50.7300    0.0550   55.9540 C.ar  102  TYR102      0.1957
     29  OH        51.8360    0.6450   56.5190 O.3   102  TYR102     -0.2866
     30  N         49.8790    0.6260   50.0410 N.3   104  ALA104     -0.1245
     31  CA        49.9010    2.0910   50.0420 C.3   104  ALA104      0.1562
     32  C         48.9070    2.7690   49.0980 C.2   104  ALA104      0.2260
     33  O         48.3260    3.7990   49.4380 O.2   104  ALA104     -0.2867
     34  CB        51.3060    2.5910   49.7560 C.3   104  ALA104      0.0290
     35  N         45.5130    3.7880   50.5530 N.3   107  ILE107     -0.1245
     36  CA        45.5000    4.6810   51.7050 C.3   107  ILE107      0.1561
     37  C         44.6190    5.9170   51.5750 C.2   107  ILE107      0.2260
     38  O         44.6730    6.6340   50.5780 O.2   107  ILE107     -0.2867
     39  CB        46.9320    5.1540   52.0590 C.3   107  ILE107      0.0252
     40  CG1       47.7410    3.9930   52.6380 C.3   107  ILE107      0.0019
     41  CG2       46.8930    6.3180   53.0460 C.3   107  ILE107      0.0019
     42  CD1       49.1490    4.3780   53.0280 C.3   107  ILE107      0.0001
     43  N         49.2620   -0.0720   62.2380 N.3   143  ASP143     -0.1239
     44  CA        50.4880   -0.5860   61.6370 C.3   143  ASP143      0.1674
     45  C         50.5420   -2.1100   61.6900 C.2   143  ASP143      0.2266
     46  O         51.5760   -2.7010   61.9970 O.2   143  ASP143     -0.2867
     47  CB        51.7260    0.0340   62.2980 C.3   143  ASP143      0.1410
     48  CG        51.8580    1.5260   62.0140 C.2   143  ASP143      0.3668
     49  OD1       51.8880    1.9180   60.8290 O.co2 143  ASP143     -0.2456
     50  OD2       51.9360    2.3120   62.9820 O.co2 143  ASP143     -0.2456
     51  N         50.3380    8.7380   65.2900 N.3   171  ARG171     -0.1231
     52  CA        50.5640    8.6730   63.8500 C.3   171  ARG171      0.1694
     53  C         50.8890    7.2540   63.4250 C.2   171  ARG171      0.2593
     54  O         51.6370    6.5490   64.1020 O.2   171  ARG171     -0.2718
     55  CB        51.6980    9.6140   63.4400 C.3   171  ARG171      0.0321
     56  CG        51.4010   11.0800   63.6900 C.3   171  ARG171      0.0489
     57  CD        52.6010   11.9660   63.3860 C.3   171  ARG171      0.2205
     58  NE        52.9690   11.9580   61.9720 N.pl3 171  ARG171     -0.0865
     59  CZ        53.9220   11.1920   61.4480 C.cat 171  ARG171      0.5346
     60  NH1       54.6130   10.3610   62.2200 N.pl3 171  ARG171      0.1354
     61  NH2       54.1870   11.2560   60.1510 N.pl3 171  ARG171      0.1354
     62  N         50.3070    6.8410   62.3060 N.am  172  GLY172     -0.1942
     63  CA        50.5310    5.5050   61.7840 C.3   172  GLY172      0.2014
     64  C         49.4300    5.1280   60.8120 C.2   172  GLY172      0.2638
     65  O         48.4850    5.8920   60.6130 O.2   172  GLY172     -0.2714
     66  N         49.5600    3.9710   60.1750 N.am  173  ASN173     -0.1972
     67  CA        48.5460    3.5210   59.2330 C.3   173  ASN173      0.1688
     68  C         47.6060    2.5470   59.9260 C.2   173  ASN173      0.2292
     69  O         48.0120    1.4520   60.3070 O.2   173  ASN173     -0.2864
     70  CB        49.1980    2.8670   58.0140 C.3   173  ASN173      0.1181
     71  CG        49.8690    3.8780   57.1020 C.2   173  ASN173      0.2629
     72  OD1       49.2220    4.8100   56.6260 O.2   173  ASN173     -0.2716
     73  ND2       51.1650    3.7020   56.8660 N.am  173  ASN173     -0.0877
     74  N         45.6660    6.4890   56.7720 N.3   194  GLU194     -0.1231
     75  CA        46.9070    7.0650   57.2680 C.3   194  GLU194      0.1699
     76  C         46.5450    8.2490   58.1570 C.2   194  GLU194      0.2592
     77  O         46.0040    9.2510   57.6850 O.2   194  GLU194     -0.2718
     78  CB        47.8080    7.5300   56.1300 C.3   194  GLU194      0.0402
     79  CG        49.1010    8.1680   56.6280 C.3   194  GLU194      0.1161
     80  CD        50.0380    8.5880   55.5160 C.2   194  GLU194      0.3649
     81  OE1       49.5600    8.8730   54.3970 O.co2 194  GLU194     -0.2457
     82  OE2       51.2590    8.6420   55.7650 O.co2 194  GLU194     -0.2457
     83  N         46.8260    8.1160   59.4460 N.am  195  PHE195     -0.1962
     84  CA        46.5210    9.1580   60.4110 C.3   195  PHE195      0.1771
     85  C         47.6710   10.1500   60.5320 C.2   195  PHE195      0.2619
     86  O         48.8080    9.7670   60.8210 O.2   195  PHE195     -0.2715
     87  CB        46.2130    8.5270   61.7700 C.3   195  PHE195      0.0574
     88  CG        45.6910    9.4970   62.7860 C.ar  195  PHE195     -0.0200
     89  CD1       44.6880   10.3970   62.4570 C.ar  195  PHE195     -0.0042
     90  CD2       46.1950    9.5050   64.0790 C.ar  195  PHE195     -0.0042
     91  CE1       44.1960   11.2900   63.4000 C.ar  195  PHE195     -0.0003
     92  CE2       45.7100   10.3940   65.0290 C.ar  195  PHE195     -0.0003
     93  CZ        44.7100   11.2870   64.6900 C.ar  195  PHE195     -0.0000
     94  N         47.3730   11.4210   60.2790 N.am  196  ILE196     -0.1977
     95  CA        48.3610   12.4930   60.3620 C.3   196  ILE196      0.1596
     96  C         47.9180   13.4960   61.4270 C.2   196  ILE196      0.2287
     97  O         46.7520   13.9040   61.4670 O.2   196  ILE196     -0.2864
     98  CB        48.5090   13.2250   59.0120 C.3   196  ILE196      0.0276
     99  CG1       48.9200   12.2370   57.9200 C.3   196  ILE196      0.0022
    100  CG2       49.5410   14.3330   59.1230 C.3   196  ILE196      0.0022
    101  CD1       48.9520   12.8370   56.5280 C.3   196  ILE196      0.0001
@<TRIPOS>BOND
     1    32    33    2
     2    32    31    1
     3     6     7    1
     4     6     5    1
     5     8     7   ar
     6    34    31    1
     7     7     9   ar
     8     2     5    1
     9     2     1    1
    10     2     3    1
    11    30    31    1
    12    35    36    1
    13    38    37    2
    14     3     4    2
    15    37    36    1
    16    36    39    1
    17    39    40    1
    18    39    41    1
    19    21    20    2
    20    20    19    1
    21    40    42    1
    22    19    22    1
    23    19    18    1
    24    17    15    1
    25    24    26   ar
    26    24    23   ar
    27    13    12    2
    28    22    23    1
    29    14    15    1
    30    14    11    1
    31    81    80   ar
    32    26    28   ar
    33    10    11    1
    34    23    25   ar
    35    15    16    1
    36    12    11    1
    37    80    82   ar
    38    80    79    1
    39    28    29    1
    40    28    27   ar
    41    78    79    1
    42    78    75    1
    43    25    27   ar
    44   101    99    1
    45    72    71    2
    46    74    75    1
    47    73    71   am
    48    71    70    1
    49    75    76    1
    50    77    76    2
    51    99    98    1
    52    70    67    1
    53    76    83   am
    54    98   100    1
    55    98    95    1
    56    67    68    1
    57    67    66    1
    58    83    84    1
    59    68    69    2
    60    61    59    1
    61    66    64   am
    62    94    95    1
    63    94    85   am
    64    95    96    1
    65    84    85    1
    66    84    87    1
    67    85    86    2
    68    65    64    2
    69    64    63    1
    70    49    48   ar
    71    96    97    2
    72    59    58    2
    73    59    60    1
    74    44    45    1
    75    44    43    1
    76    44    47    1
    77    45    46    2
    78    87    88    1
    79    63    62    1
    80    58    57    1
    81    48    47    1
    82    48    50   ar
    83    62    53   am
    84    89    88   ar
    85    89    91   ar
    86    88    90   ar
    87    57    56    1
    88    91    93   ar
    89    53    52    1
    90    53    54    2
    91    55    56    1
    92    55    52    1
    93    52    51    1
    94    90    92   ar
    95    93    92   ar
