@<TRIPOS>MOLECULE
tmp/1iriC00.pdb
 121 111 0 0 0
SMALL
GASTEIGER

@<TRIPOS>ATOM
      1  N         55.8450   74.2770  118.8530 N.3   157  ILE157     -0.1231
      2  CA        55.6940   72.8970  119.2930 C.3   157  ILE157      0.1692
      3  C         54.8970   72.1500  118.2490 C.2   157  ILE157      0.2593
      4  O         54.1100   72.7420  117.5430 O.2   157  ILE157     -0.2718
      5  CB        55.0280   72.8610  120.6720 C.3   157  ILE157      0.0266
      6  CG1       55.0640   71.4610  121.2590 C.3   157  ILE157      0.0019
      7  CG2       53.5950   73.3710  120.6210 C.3   157  ILE157      0.0020
      8  CD1       54.8240   71.4770  122.7630 C.3   157  ILE157      0.0001
      9  N         55.1240   70.8550  118.1370 N.am  158  GLY158     -0.1942
     10  CA        54.3930   70.0340  117.1950 C.3   158  GLY158      0.2014
     11  C         54.6820   70.4450  115.7760 C.2   158  GLY158      0.2639
     12  O         55.8250   70.4600  115.3380 O.2   158  GLY158     -0.2714
     13  N         53.6280   70.8070  115.0600 N.am  159  GLY159     -0.1939
     14  CA        53.7410   71.2190  113.6870 C.3   159  GLY159      0.2014
     15  C         54.6030   72.4370  113.4850 C.2   159  GLY159      0.2639
     16  O         55.1100   72.6680  112.3880 O.2   159  GLY159     -0.2714
     17  N         54.7770   73.2310  114.5280 N.am  160  SER160     -0.1949
     18  CA        55.5880   74.4300  114.3980 C.3   160  SER160      0.1924
     19  C         57.0210   74.1760  114.8810 C.2   160  SER160      0.2314
     20  O         57.8480   75.0950  114.9790 O.2   160  SER160     -0.2863
     21  CB        54.9300   75.5730  115.1640 C.3   160  SER160      0.2116
     22  OG        53.6670   75.8780  114.5910 O.3   160  SER160     -0.2180
     23  N         57.1490   80.5790  116.2380 N.3   209  ALA209     -0.1231
     24  CA        56.4260   79.8600  115.2200 C.3   209  ALA209      0.1694
     25  C         55.1330   79.2630  115.7820 C.2   209  ALA209      0.2593
     26  O         55.1400   78.3400  116.5870 O.2   209  ALA209     -0.2718
     27  CB        57.3090   78.7690  114.6680 C.3   209  ALA209      0.0304
     28  N         54.0140   79.7800  115.3260 N.am  210  SER210     -0.1938
     29  CA        52.7570   79.2790  115.7870 C.3   210  SER210      0.2055
     30  C         51.6610   79.7570  114.8680 C.2   210  SER210      0.2643
     31  O         51.4430   80.9540  114.7380 O.2   210  SER210     -0.2714
     32  CB        52.4810   79.7680  117.2180 C.3   210  SER210      0.2130
     33  OG        51.2510   79.2430  117.6760 O.3   210  SER210     -0.2179
     34  N         50.9790   78.8080  114.2450 N.am  211  LYS211     -0.1963
     35  CA        49.8370   79.1020  113.3980 C.3   211  LYS211      0.1728
     36  C         48.7940   79.9850  114.0990 C.2   211  LYS211      0.2616
     37  O         48.3300   80.9750  113.5180 O.2   211  LYS211     -0.2715
     38  CB        49.1680   77.7980  112.9460 C.3   211  LYS211      0.0311
     39  CG        48.0910   78.0430  111.8920 C.3   211  LYS211      0.0038
     40  CD        47.2860   76.7750  111.5870 C.3   211  LYS211      0.0206
     41  CE        46.4920   76.8640  110.2680 C.3   211  LYS211      0.1093
     42  NZ        46.1120   75.4880  109.7540 N.3   211  LYS211     -0.1314
     43  N         48.4180   79.6270  115.3310 N.am  212  THR212     -0.1951
     44  CA        47.3730   80.3610  116.0580 C.3   212  THR212      0.1897
     45  C         47.9090   81.5480  116.8230 C.2   212  THR212      0.2313
     46  O         47.2100   82.5160  117.0260 O.2   212  THR212     -0.2863
     47  CB        46.6490   79.4560  117.0870 C.3   212  THR212      0.1794
     48  OG1       47.5970   78.6390  117.8030 O.3   212  THR212     -0.2208
     49  CG2       45.7150   78.4940  116.4140 C.3   212  THR212      0.0378
     50  N         48.9400   79.1160  121.3260 N.3   215  THR215     -0.1218
     51  CA        49.3270   77.8720  121.9610 C.3   215  THR215      0.1862
     52  C         50.1080   78.1660  123.2460 C.2   215  THR215      0.2287
     53  O         51.0990   78.8940  123.2440 O.2   215  THR215     -0.2866
     54  CB        50.1630   77.0550  120.9920 C.3   215  THR215      0.1770
     55  OG1       49.4540   76.9150  119.7550 O.3   215  THR215     -0.2211
     56  CG2       50.3550   75.6170  121.5370 C.3   215  THR215      0.0375
     57  N         53.9170   77.6520  123.4750 N.3   218  THR218     -0.1218
     58  CA        54.7350   78.5520  122.6810 C.3   218  THR218      0.1862
     59  C         54.7160   79.9930  123.1750 C.2   218  THR218      0.2287
     60  O         55.7460   80.6580  123.1770 O.2   218  THR218     -0.2866
     61  CB        54.2980   78.4760  121.2240 C.3   218  THR218      0.1770
     62  OG1       54.5430   77.1530  120.7400 O.3   218  THR218     -0.2211
     63  CG2       55.1390   79.3850  120.3320 C.3   218  THR218      0.0375
     64  N         49.5350   72.3020  110.4830 N.3   272  GLY272     -0.1210
     65  CA        50.8040   72.3870  111.1780 C.3   272  GLY272      0.1956
     66  C         51.7370   71.2620  110.7890 C.2   272  GLY272      0.2611
     67  O         52.8990   71.4890  110.5100 O.2   272  GLY272     -0.2717
     68  N         51.2200   70.0380  110.7850 N.am  273  ARG273     -0.1979
     69  CA        52.0420   68.8810  110.4730 C.3   273  ARG273      0.1597
     70  C         52.4030   68.7710  108.9810 C.2   273  ARG273      0.2287
     71  O         53.0870   67.8250  108.5840 O.2   273  ARG273     -0.2864
     72  CB        51.3920   67.5940  111.0040 C.3   273  ARG273      0.0334
     73  CG        50.0060   67.2400  110.4520 C.3   273  ARG273      0.0492
     74  CD        49.3340   66.0280  111.1790 C.3   273  ARG273      0.2205
     75  NE        47.9450   65.8510  110.7880 N.pl3 273  ARG273     -0.0865
     76  CZ        46.9380   66.5710  111.2590 C.cat 273  ARG273      0.5346
     77  NH1       47.1430   67.5050  112.1620 N.pl3 273  ARG273      0.1354
     78  NH2       45.7140   66.3540  110.8110 N.pl3 273  ARG273      0.1354
     79  N         54.2500   61.9490  113.9990 N.3   354  GLN354     -0.1245
     80  CA        53.2040   62.9610  114.0340 C.3   354  GLN354      0.1566
     81  C         52.4250   63.0630  112.7450 C.2   354  GLN354      0.2260
     82  O         51.2120   63.2020  112.7530 O.2   354  GLN354     -0.2867
     83  CB        53.7610   64.3420  114.3690 C.3   354  GLN354      0.0367
     84  CG        52.7630   65.4590  114.0640 C.3   354  GLN354      0.0905
     85  CD        53.2210   66.8120  114.5650 C.2   354  GLN354      0.2608
     86  OE1       52.4240   67.7390  114.6620 O.2   354  GLN354     -0.2717
     87  NE2       54.5010   66.9330  114.8570 N.am  354  GLN354     -0.0878
     88  N         48.7280   61.9090  113.8110 N.3   358  GLU358     -0.1245
     89  CA        47.8270   63.0090  114.0880 C.3   358  GLU358      0.1567
     90  C         46.8280   63.1560  112.9270 C.2   358  GLU358      0.2260
     91  O         45.7510   63.7710  113.0660 O.2   358  GLU358     -0.2867
     92  CB        48.6280   64.2830  114.3020 C.3   358  GLU358      0.0388
     93  CG        47.9110   65.3230  115.1210 C.3   358  GLU358      0.1160
     94  CD        48.5350   66.7060  115.0180 C.2   358  GLU358      0.3649
     95  OE1       47.9300   67.6860  115.5000 O.co2 358  GLU358     -0.2457
     96  OE2       49.6220   66.8380  114.4470 O.co2 358  GLU358     -0.2457
     97  N         42.3330   67.6070  113.7770 N.3   512  GLN512     -0.1245
     98  CA        42.9270   66.9740  114.9510 C.3   512  GLN512      0.1566
     99  C         42.1560   67.4570  116.1840 C.2   512  GLN512      0.2260
    100  O         42.6910   68.1600  117.0620 O.2   512  GLN512     -0.2867
    101  CB        44.4220   67.3190  115.0850 C.3   512  GLN512      0.0367
    102  CG        44.7570   68.8100  115.1240 C.3   512  GLN512      0.0905
    103  CD        44.5560   69.4880  113.7950 C.2   512  GLN512      0.2608
    104  OE1       44.9240   68.9330  112.7490 O.2   512  GLN512     -0.2717
    105  NE2       43.9540   70.6720  113.8120 N.am  512  GLN512     -0.0878
    106  N         42.9230   66.8090  120.4360 N.3   515  VAL515     -0.1245
    107  CA        43.8100   67.5120  121.3350 C.3   515  VAL515      0.1561
    108  C         43.0140   68.4040  122.3040 C.2   515  VAL515      0.2260
    109  O         43.4450   68.6650  123.4680 O.2   515  VAL515     -0.2867
    110  CB        44.7190   68.4530  120.5220 C.3   515  VAL515      0.0252
    111  CG1       45.1860   67.7590  119.2370 C.3   515  VAL515      0.0019
    112  CG2       44.0160   69.7260  120.1670 C.3   515  VAL515      0.0019
    113  N         43.8000   69.9450  126.6260 N.3   519  LYS519     -0.1245
    114  CA        43.9640   71.3940  126.7380 C.3   519  LYS519      0.1561
    115  C         42.9170   72.0450  127.6580 C.2   519  LYS519      0.2260
    116  O         43.2440   72.8450  128.5220 O.2   519  LYS519     -0.2867
    117  CB        43.8980   72.0650  125.3580 C.3   519  LYS519      0.0271
    118  CG        45.0280   71.7170  124.3940 C.3   519  LYS519      0.0035
    119  CD        45.1850   72.8740  123.3890 C.3   519  LYS519      0.0206
    120  CE        46.0970   72.5650  122.1920 C.3   519  LYS519      0.1093
    121  NZ        46.1860   73.7540  121.2750 N.3   519  LYS519     -0.1314
@<TRIPOS>BOND
     1    71    70    2
     2    70    69    1
     3    42    41    1
     4    41    40    1
     5    73    72    1
     6    73    74    1
     7    69    68    1
     8    69    72    1
     9    64    65    1
    10    67    66    2
    11    68    66   am
    12    75    74    1
    13    75    76    2
    14    66    65    1
    15    78    76    1
    16    76    77    1
    17    40    39    1
    18    39    38    1
    19    16    15    2
    20    81    82    2
    21    81    80    1
    22   104   103    2
    23    90    91    2
    24    90    89    1
    25    38    35    1
    26    35    36    1
    27    35    34    1
    28    15    14    1
    29    15    17   am
    30    37    36    2
    31    14    13    1
    32    97    98    1
    33   103   105   am
    34   103   102    1
    35    88    89    1
    36    79    80    1
    37    80    83    1
    38    84    83    1
    39    84    85    1
    40    89    92    1
    41    36    43   am
    42    34    30   am
    43    92    93    1
    44    18    17    1
    45    18    19    1
    46    18    21    1
    47    96    94   ar
    48    85    86    2
    49    85    87   am
    50    22    21    1
    51    27    24    1
    52    31    30    2
    53    30    29    1
    54    19    20    2
    55    98   101    1
    56    98    99    1
    57    94    93    1
    58    94    95   ar
    59    13    11   am
    60   101   102    1
    61    24    25    1
    62    24    23    1
    63    28    25   am
    64    28    29    1
    65    43    44    1
    66    12    11    2
    67    11    10    1
    68    25    26    2
    69    29    32    1
    70    44    45    1
    71    44    47    1
    72    99   100    2
    73    49    47    1
    74    45    46    2
    75    47    48    1
    76    10     9    1
    77    32    33    1
    78     4     3    2
    79     9     3   am
    80     3     2    1
    81     1     2    1
    82   111   110    1
    83     2     5    1
    84    55    54    1
    85   112   110    1
    86    63    61    1
    87   106   107    1
    88   110   107    1
    89     7     5    1
    90     5     6    1
    91    62    61    1
    92    54    56    1
    93    54    51    1
    94    61    58    1
    95     6     8    1
    96   121   120    1
    97    50    51    1
    98   107   108    1
    99    51    52    1
   100   120   119    1
   101   108   109    2
   102    58    59    1
   103    58    57    1
   104    59    60    2
   105    53    52    2
   106   119   118    1
   107   118   117    1
   108   117   114    1
   109   113   114    1
   110   114   115    1
   111   115   116    2
