@<TRIPOS>MOLECULE
tmp/1irjB00.pdb
 96 91 0 0 0
SMALL
GASTEIGER

@<TRIPOS>ATOM
      1  N         16.6380   52.8150   26.7490 N.3    45  ASN45      -0.1225
      2  CA        15.7780   53.9540   26.4540 C.3    45  ASN45       0.1785
      3  C         14.8940   53.6730   25.2530 C.2    45  ASN45       0.2597
      4  O         13.6790   53.8110   25.3350 O.2    45  ASN45      -0.2718
      5  CB        16.6330   55.2010   26.2320 C.3    45  ASN45       0.1169
      6  CG        17.4300   55.5600   27.4670 C.2    45  ASN45       0.2627
      7  OD1       16.8590   55.9190   28.4970 O.2    45  ASN45      -0.2716
      8  ND2       18.7480   55.4360   27.3850 N.am   45  ASN45      -0.0877
      9  N         15.5080   53.2710   24.1430 N.am   46  PHE46      -0.1962
     10  CA        14.7600   52.9470   22.9300 C.3    46  PHE46       0.1771
     11  C         13.6890   51.8760   23.1550 C.2    46  PHE46       0.2619
     12  O         12.6560   51.8690   22.4790 O.2    46  PHE46      -0.2715
     13  CB        15.7140   52.4770   21.8280 C.3    46  PHE46       0.0574
     14  CG        16.4920   53.5790   21.1860 C.ar   46  PHE46      -0.0200
     15  CD1       17.2300   53.3370   20.0290 C.ar   46  PHE46      -0.0042
     16  CD2       16.4830   54.8610   21.7190 C.ar   46  PHE46      -0.0042
     17  CE1       17.9440   54.3560   19.4130 C.ar   46  PHE46      -0.0003
     18  CE2       17.1970   55.8880   21.1130 C.ar   46  PHE46      -0.0003
     19  CZ        17.9280   55.6370   19.9560 C.ar   46  PHE46      -0.0000
     20  N         13.9370   50.9700   24.0950 N.am   47  LEU47      -0.1977
     21  CA        12.9960   49.8930   24.3930 C.3    47  LEU47       0.1596
     22  C         12.6790   49.7910   25.8770 C.2    47  LEU47       0.2287
     23  O         12.4920   48.6950   26.4080 O.2    47  LEU47      -0.2864
     24  CB        13.5500   48.5480   23.8850 C.3    47  LEU47       0.0297
     25  CG        13.6540   48.4370   22.3590 C.3    47  LEU47       0.0022
     26  CD1       14.2080   47.0710   21.9510 C.3    47  LEU47       0.0001
     27  CD2       12.2700   48.6610   21.7680 C.3    47  LEU47       0.0001
     28  N          9.2260   48.0060   26.6390 N.3    50  GLU50      -0.1245
     29  CA         9.2940   46.6190   26.1910 C.3    50  GLU50       0.1567
     30  C         10.1390   45.7630   27.1300 C.2    50  GLU50       0.2260
     31  O          9.8120   44.5990   27.3840 O.2    50  GLU50      -0.2867
     32  CB         9.8560   46.5650   24.7740 C.3    50  GLU50       0.0388
     33  CG         8.9620   47.2470   23.7240 C.3    50  GLU50       0.1160
     34  CD         8.8570   48.7680   23.8780 C.2    50  GLU50       0.3649
     35  OE1        9.8780   49.4390   24.1590 O.co2  50  GLU50      -0.2457
     36  OE2        7.7460   49.3020   23.6880 O.co2  50  GLU50      -0.2457
     37  N          7.7580   40.1950   25.4670 N.3    56  VAL56      -0.1245
     38  CA         7.7450   41.1440   24.3610 C.3    56  VAL56       0.1561
     39  C          9.1120   41.1090   23.6850 C.2    56  VAL56       0.2260
     40  O          9.2110   41.0890   22.4590 O.2    56  VAL56      -0.2867
     41  CB         7.4170   42.5730   24.8410 C.3    56  VAL56       0.0252
     42  CG1        7.6470   43.5880   23.7030 C.3    56  VAL56       0.0019
     43  CG2        5.9680   42.6160   25.2770 C.3    56  VAL56       0.0019
     44  N          9.3600   38.2450   21.3880 N.3    59  HIS59      -0.1226
     45  CA         8.5830   38.4590   20.1650 C.3    59  HIS59       0.1752
     46  C          9.4150   39.3220   19.2130 C.2    59  HIS59       0.2595
     47  O          9.4780   39.0630   18.0030 O.2    59  HIS59      -0.2718
     48  CB         7.2500   39.1550   20.5120 C.3    59  HIS59       0.0759
     49  CG         6.2170   39.0840   19.4270 C.ar   59  HIS59       0.0818
     50  ND1        4.8880   39.3880   19.6450 N.ar   59  HIS59      -0.2268
     51  CD2        6.3140   38.7420   18.1180 C.ar   59  HIS59       0.1154
     52  CE1        4.2110   39.2310   18.5190 C.ar   59  HIS59       0.1986
     53  NE2        5.0510   38.8400   17.5790 N.ar   59  HIS59      -0.2212
     54  N         10.0570   40.3510   19.7590 N.am   60  ILE60      -0.1980
     55  CA        10.8970   41.2160   18.9460 C.3    60  ILE60       0.1595
     56  C         11.9340   40.4030   18.1860 C.2    60  ILE60       0.2287
     57  O         12.2060   40.6480   17.0080 O.2    60  ILE60      -0.2864
     58  CB        11.6370   42.2550   19.7960 C.3    60  ILE60       0.0276
     59  CG1       10.6330   43.2760   20.3460 C.3    60  ILE60       0.0022
     60  CG2       12.7070   42.9540   18.9460 C.3    60  ILE60       0.0022
     61  CD1       11.2380   44.3180   21.2500 C.3    60  ILE60       0.0001
     62  N         10.5030   38.1890   15.3950 N.3    63  ASP63      -0.1239
     63  CA        10.2230   39.1170   14.3070 C.3    63  ASP63       0.1674
     64  C         11.4700   39.4010   13.4690 C.2    63  ASP63       0.2266
     65  O         11.4130   39.4840   12.2420 O.2    63  ASP63      -0.2867
     66  CB         9.7070   40.4200   14.9050 C.3    63  ASP63       0.1410
     67  CG         8.7770   41.1530   13.9850 C.2    63  ASP63       0.3668
     68  OD1        7.7080   40.5920   13.6670 O.co2  63  ASP63      -0.2456
     69  OD2        9.1090   42.2870   13.5930 O.co2  63  ASP63      -0.2456
     70  N         16.5820   46.0000   13.2440 N.3    80  LEU80      -0.1245
     71  CA        15.9080   46.5670   14.4060 C.3    80  LEU80       0.1561
     72  C         15.9450   48.0830   14.3060 C.2    80  LEU80       0.2260
     73  O         15.0020   48.7670   14.7200 O.2    80  LEU80      -0.2867
     74  CB        16.5920   46.1400   15.7120 C.3    80  LEU80       0.0270
     75  CG        16.0020   46.7580   16.9930 C.3    80  LEU80       0.0019
     76  CD1       14.5320   46.3810   17.1200 C.3    80  LEU80       0.0001
     77  CD2       16.7840   46.2640   18.2270 C.3    80  LEU80       0.0001
     78  N         13.0310   49.3110   12.5710 N.3    83  ARG83      -0.1231
     79  CA        11.7540   49.2160   13.2670 C.3    83  ARG83       0.1694
     80  C         11.5130   50.3260   14.2970 C.2    83  ARG83       0.2591
     81  O         10.4720   50.3540   14.9590 O.2    83  ARG83      -0.2718
     82  CB        11.6090   47.8390   13.9200 C.3    83  ARG83       0.0321
     83  CG        11.3050   46.7050   12.9280 C.3    83  ARG83       0.0489
     84  CD        11.0230   45.3940   13.6800 C.3    83  ARG83       0.2205
     85  NE        10.5430   44.2790   12.8510 N.pl3  83  ARG83      -0.0865
     86  CZ        11.2330   43.7070   11.8660 C.cat  83  ARG83       0.5346
     87  NH1       12.4450   44.1420   11.5540 N.pl3  83  ARG83       0.1354
     88  NH2       10.7280   42.6650   11.2170 N.pl3  83  ARG83       0.1354
     89  N         12.4640   51.2460   14.4210 N.am   84  LEU84      -0.1980
     90  CA        12.3290   52.3530   15.3630 C.3    84  LEU84       0.1596
     91  C         11.6870   53.5620   14.6800 C.2    84  LEU84       0.2287
     92  O         11.7560   53.6330   13.4340 O.2    84  LEU84      -0.2864
     93  CB        13.7060   52.7390   15.9120 C.3    84  LEU84       0.0297
     94  CG        14.3560   51.8890   17.0120 C.3    84  LEU84       0.0022
     95  CD1       13.9050   50.4450   16.9440 C.3    84  LEU84       0.0001
     96  CD2       15.8680   51.9990   16.8780 C.3    84  LEU84       0.0001
@<TRIPOS>BOND
     1    88    86    1
     2    87    86    1
     3    86    85    2
     4    65    64    2
     5    78    79    1
     6    85    84    1
     7    83    84    1
     8    83    82    1
     9    70    71    1
    10    79    82    1
    11    79    80    1
    12    92    91    2
    13    64    63    1
    14    69    67   ar
    15    68    67   ar
    16    67    66    1
    17    80    89   am
    18    80    81    2
    19    72    71    1
    20    72    73    2
    21    63    66    1
    22    63    62    1
    23    71    74    1
    24    89    90    1
    25    91    90    1
    26    90    93    1
    27    74    75    1
    28    93    94    1
    29    96    94    1
    30    95    94    1
    31    75    76    1
    32    75    77    1
    33    57    56    2
    34    53    51   ar
    35    53    52   ar
    36    47    46    2
    37    51    49   ar
    38    56    55    1
    39    52    50   ar
    40    60    58    1
    41    55    54    1
    42    55    58    1
    43    46    54   am
    44    46    45    1
    45    17    19   ar
    46    17    15   ar
    47    49    50   ar
    48    49    48    1
    49    58    59    1
    50    19    18   ar
    51    15    14   ar
    52    45    48    1
    53    45    44    1
    54    59    61    1
    55    18    16   ar
    56    14    16   ar
    57    14    13    1
    58    27    25    1
    59    13    10    1
    60    26    25    1
    61    25    24    1
    62    40    39    2
    63    12    11    2
    64    10    11    1
    65    10     9    1
    66    11    20   am
    67    39    38    1
    68    36    34   ar
    69    42    41    1
    70    33    34    1
    71    33    32    1
    72    34    35   ar
    73    24    21    1
    74    20    21    1
    75     9     3   am
    76    38    41    1
    77    38    37    1
    78    21    22    1
    79    32    29    1
    80    41    43    1
    81     3     4    2
    82     3     2    1
    83    22    23    2
    84    29    28    1
    85    29    30    1
    86     5     2    1
    87     5     6    1
    88     2     1    1
    89    30    31    2
    90     8     6   am
    91     6     7    2
