@<TRIPOS>MOLECULE
tmp/1is0B00.pdb
 165 158 0 0 0
SMALL
GASTEIGER

@<TRIPOS>ATOM
      1  N         28.2590   41.2750   40.9020 N.3    10  ARG10      -0.1245
      2  CA        28.1390   39.8430   40.6140 C.3    10  ARG10       0.1563
      3  C         28.2640   39.6370   39.1030 C.2    10  ARG10       0.2260
      4  O         28.9410   38.7210   38.6440 O.2    10  ARG10      -0.2867
      5  CB        26.7790   39.3420   41.0890 C.3    10  ARG10       0.0307
      6  CG        26.3740   37.9820   40.5450 C.3    10  ARG10       0.0489
      7  CD        25.1100   37.5790   41.2680 C.3    10  ARG10       0.2205
      8  NE        24.6770   36.2550   40.8960 N.pl3  10  ARG10      -0.0865
      9  CZ        24.4440   35.2640   41.7570 C.cat  10  ARG10       0.5346
     10  NH1       24.6230   35.4060   43.0780 N.pl3  10  ARG10       0.1354
     11  NH2       23.9580   34.1380   41.2820 N.pl3  10  ARG10       0.1354
     12  N         35.0770   38.6350   46.1380 N.3    30  ARG30      -0.1245
     13  CA        34.5830   40.0020   45.9720 C.3    30  ARG30       0.1563
     14  C         33.7230   40.3620   47.1710 C.2    30  ARG30       0.2260
     15  O         33.3090   39.4920   47.9430 O.2    30  ARG30      -0.2867
     16  CB        33.7320   40.0790   44.6980 C.3    30  ARG30       0.0307
     17  CG        32.4840   39.1320   44.7070 C.3    30  ARG30       0.0489
     18  CD        31.7550   39.1630   43.3610 C.3    30  ARG30       0.2205
     19  NE        30.7640   38.0890   43.2430 N.pl3  30  ARG30      -0.0865
     20  CZ        29.5340   38.1120   43.7680 C.cat  30  ARG30       0.5346
     21  NH1       29.1130   39.1750   44.4480 N.pl3  30  ARG30       0.1354
     22  NH2       28.7540   37.0380   43.6710 N.pl3  30  ARG30       0.1354
     23  N         30.2950   41.0460   48.6690 N.3    32  SER32      -0.1202
     24  CA        28.9430   40.7380   48.2120 C.3    32  SER32       0.2020
     25  C         28.2060   42.0240   47.8330 C.2    32  SER32       0.2619
     26  O         28.3160   43.0530   48.5220 O.2    32  SER32      -0.2717
     27  CB        28.1520   40.0270   49.3060 C.3    32  SER32       0.2103
     28  OG        26.8320   39.7660   48.8680 O.3    32  SER32      -0.2182
     29  N         27.4770   41.9430   46.7260 N.am   33  GLU33      -0.1965
     30  CA        26.7100   43.0480   46.2120 C.3    33  GLU33       0.1733
     31  C         25.3610   43.1430   46.9600 C.2    33  GLU33       0.2617
     32  O         24.8730   44.2340   47.2060 O.2    33  GLU33      -0.2715
     33  CB        26.5260   42.8410   44.7020 C.3    33  GLU33       0.0429
     34  CG        26.0380   44.0560   43.9560 C.3    33  GLU33       0.1163
     35  CD        25.6630   43.7720   42.5290 C.2    33  GLU33       0.3649
     36  OE1       25.2570   44.7300   41.8380 O.co2  33  GLU33      -0.2457
     37  OE2       25.7650   42.6180   42.0690 O.co2  33  GLU33      -0.2457
     38  N         24.7800   42.0120   47.3680 N.am   34  THR34      -0.1951
     39  CA        23.4900   42.0390   48.0880 C.3    34  THR34       0.1897
     40  C         23.6440   42.0600   49.6120 C.2    34  THR34       0.2313
     41  O         22.7280   42.4420   50.3320 O.2    34  THR34      -0.2863
     42  CB        22.5820   40.8270   47.6970 C.3    34  THR34       0.1794
     43  OG1       23.2600   39.5950   47.9950 O.3    34  THR34      -0.2208
     44  CG2       22.2670   40.8700   46.2030 C.3    34  THR34       0.0378
     45  N         31.8990   37.1240   48.8450 N.3    40  CYS40      -0.1235
     46  CA        31.5050   35.9550   48.0700 C.3    40  CYS40       0.1677
     47  C         32.7140   35.3610   47.3800 C.2    40  CYS40       0.2270
     48  O         33.6200   36.0910   46.9130 O.2    40  CYS40      -0.2867
     49  CB        30.5160   36.2950   46.9530 C.3    40  CYS40       0.0956
     50  SG        28.9760   36.9360   47.5430 S.3    40  CYS40      -0.0801
     51  N         29.6480   29.5900   39.9310 N.3    55  LYS55      -0.1231
     52  CA        28.9890   29.2700   41.1950 C.3    55  LYS55       0.1693
     53  C         29.4070   30.3740   42.1820 C.2    55  LYS55       0.2592
     54  O         30.5860   30.6960   42.2890 O.2    55  LYS55      -0.2718
     55  CB        29.4230   27.9000   41.7650 C.3    55  LYS55       0.0285
     56  CG        29.1600   26.6340   40.8630 C.3    55  LYS55       0.0035
     57  CD        27.7070   26.4300   40.5410 C.3    55  LYS55       0.0206
     58  CE        27.3780   24.9800   40.0760 C.3    55  LYS55       0.1093
     59  NZ        27.9020   24.6220   38.7260 N.3    55  LYS55      -0.1314
     60  N         28.4380   30.9560   42.8910 N.am   56  HIS56      -0.1962
     61  CA        28.7330   32.0040   43.8650 C.3    56  HIS56       0.1787
     62  C         28.4230   31.4790   45.2530 C.2    56  HIS56       0.2620
     63  O         27.3040   31.0050   45.5130 O.2    56  HIS56      -0.2715
     64  CB        27.8960   33.2810   43.5900 C.3    56  HIS56       0.0785
     65  CG        28.1440   33.8830   42.2430 C.ar   56  HIS56       0.0821
     66  ND1       29.1890   34.7550   41.9910 N.ar   56  HIS56      -0.2267
     67  CD2       27.5070   33.7140   41.0630 C.ar   56  HIS56       0.1154
     68  CE1       29.1800   35.0920   40.7170 C.ar   56  HIS56       0.1986
     69  NE2       28.1700   34.4770   40.1290 N.ar   56  HIS56      -0.2212
     70  N         29.4310   31.5200   46.1200 N.am   57  TYR57      -0.1960
     71  CA        29.2880   31.0950   47.4970 C.3    57  TYR57       0.1771
     72  C         29.3090   32.3170   48.3900 C.2    57  TYR57       0.2619
     73  O         30.3000   33.0440   48.4280 O.2    57  TYR57      -0.2715
     74  CB        30.4380   30.1760   47.9240 C.3    57  TYR57       0.0574
     75  CG        30.4530   28.8700   47.1780 C.ar   57  TYR57      -0.0198
     76  CD1       29.8020   27.7400   47.6930 C.ar   57  TYR57      -0.0009
     77  CD2       31.0610   28.7810   45.9340 C.ar   57  TYR57      -0.0009
     78  CE1       29.7640   26.5390   46.9680 C.ar   57  TYR57       0.0417
     79  CE2       31.0350   27.6020   45.2030 C.ar   57  TYR57       0.0417
     80  CZ        30.3790   26.4830   45.7370 C.ar   57  TYR57       0.1957
     81  OH        30.3580   25.3060   45.0180 O.3    57  TYR57      -0.2866
     82  N         28.2240   32.5600   49.1200 N.am   58  LYS58      -0.1977
     83  CA        28.2520   33.6780   50.0460 C.3    58  LYS58       0.1596
     84  C         29.0840   33.2830   51.2660 C.2    58  LYS58       0.2287
     85  O         28.8560   32.2380   51.8650 O.2    58  LYS58      -0.2864
     86  CB        26.8440   34.0560   50.5030 C.3    58  LYS58       0.0298
     87  CG        26.8340   35.2240   51.4970 C.3    58  LYS58       0.0038
     88  CD        25.5570   36.0520   51.4140 C.3    58  LYS58       0.0206
     89  CE        25.4570   36.7240   50.0810 C.3    58  LYS58       0.1093
     90  NZ        24.1180   37.2960   49.7830 N.3    58  LYS58      -0.1314
     91  N         30.0270   34.0440   55.0440 N.3    60  ARG60      -0.1245
     92  CA        29.4820   34.6870   56.2410 C.3    60  ARG60       0.1563
     93  C         30.5990   34.9060   57.2400 C.2    60  ARG60       0.2260
     94  O         31.5680   34.1440   57.2770 O.2    60  ARG60      -0.2867
     95  CB        28.4120   33.8020   56.8830 C.3    60  ARG60       0.0307
     96  CG        27.3100   33.4080   55.9290 C.3    60  ARG60       0.0489
     97  CD        26.4790   32.2460   56.4480 C.3    60  ARG60       0.2205
     98  NE        25.4630   31.8590   55.4690 N.pl3  60  ARG60      -0.0865
     99  CZ        25.7200   31.3550   54.2620 C.cat  60  ARG60       0.5346
    100  NH1       26.9720   31.1560   53.8580 N.pl3  60  ARG60       0.1354
    101  NH2       24.7150   31.0530   53.4490 N.pl3  60  ARG60       0.1354
    102  N         31.8600   29.3100   54.6480 N.3    69  ILE69      -0.1231
    103  CA        30.8860   29.0900   53.6000 C.3    69  ILE69       0.1692
    104  C         29.8740   28.1170   54.2330 C.2    69  ILE69       0.2592
    105  O         28.6600   28.2570   54.0400 O.2    69  ILE69      -0.2718
    106  CB        31.5280   28.5170   52.3310 C.3    69  ILE69       0.0266
    107  CG1       32.4280   29.5860   51.6980 C.3    69  ILE69       0.0019
    108  CG2       30.4470   28.1000   51.3420 C.3    69  ILE69       0.0020
    109  CD1       33.2130   29.1140   50.4920 C.3    69  ILE69       0.0001
    110  N         30.3820   27.1290   54.9700 N.am   70  THR70      -0.1953
    111  CA        29.5320   26.1950   55.7070 C.3    70  THR70       0.1897
    112  C         30.0110   26.2930   57.1340 C.2    70  THR70       0.2313
    113  O         31.2180   26.3260   57.3930 O.2    70  THR70      -0.2863
    114  CB        29.6240   24.7010   55.2750 C.3    70  THR70       0.1794
    115  OG1       30.9770   24.3440   54.9460 O.3    70  THR70      -0.2208
    116  CG2       28.6850   24.4410   54.1190 C.3    70  THR70       0.0378
    117  N         30.3780   24.3560   59.6030 N.3    72  ARG72      -0.1245
    118  CA        31.3310   23.3460   60.0460 C.3    72  ARG72       0.1563
    119  C         32.7860   23.6870   59.7640 C.2    72  ARG72       0.2260
    120  O         33.6560   23.3050   60.5370 O.2    72  ARG72      -0.2867
    121  CB        30.9900   21.9860   59.3880 C.3    72  ARG72       0.0307
    122  CG        31.9020   20.8350   59.8000 C.3    72  ARG72       0.0489
    123  CD        31.5760   19.4920   59.1580 C.3    72  ARG72       0.2205
    124  NE        31.1610   19.6210   57.7570 N.pl3  72  ARG72      -0.0865
    125  CZ        31.9970   19.4140   56.7610 C.cat  72  ARG72       0.5346
    126  NH1       33.2470   19.0820   56.9930 N.pl3  72  ARG72       0.1354
    127  NH2       31.6050   19.5460   55.5080 N.pl3  72  ARG72       0.1354
    128  N         40.4120   25.9340   50.2180 N.3    85  TYR85      -0.1241
    129  CA        39.6940   25.4290   49.0540 C.3    85  TYR85       0.1605
    130  C         40.5680   25.2310   47.7980 C.2    85  TYR85       0.2264
    131  O         40.1430   24.6230   46.8180 O.2    85  TYR85      -0.2867
    132  CB        38.4550   26.3080   48.8040 C.3    85  TYR85       0.0534
    133  CG        37.3990   26.0740   49.8810 C.ar   85  TYR85      -0.0201
    134  CD1       36.7970   24.8170   50.0270 C.ar   85  TYR85      -0.0009
    135  CD2       37.0460   27.0840   50.8000 C.ar   85  TYR85      -0.0009
    136  CE1       35.8790   24.5710   51.0600 C.ar   85  TYR85       0.0417
    137  CE2       36.1230   26.8450   51.8450 C.ar   85  TYR85       0.0417
    138  CZ        35.5480   25.5770   51.9670 C.ar   85  TYR85       0.1957
    139  OH        34.6920   25.2910   53.0110 O.3    85  TYR85      -0.2866
    140  N         36.6070   19.9930   49.1600 N.3    90  ASP90      -0.1225
    141  CA        35.8280   19.7510   50.3810 C.3    90  ASP90       0.1805
    142  C         34.3480   20.1750   50.2610 C.2    90  ASP90       0.2598
    143  O         33.8160   20.8770   51.1170 O.2    90  ASP90      -0.2718
    144  CB        36.4790   20.4220   51.6130 C.3    90  ASP90       0.1424
    145  CG        35.8450   19.9740   52.9320 C.2    90  ASP90       0.3668
    146  OD1       35.3270   18.8380   53.0030 O.co2  90  ASP90      -0.2456
    147  OD2       35.8490   20.7430   53.8990 O.co2  90  ASP90      -0.2456
    148  N         33.7010   19.7900   49.1690 N.am   91  GLY91      -0.1942
    149  CA        32.2910   20.1220   49.0540 C.3    91  GLY91       0.2014
    150  C         31.9670   21.2080   48.0610 C.2    91  GLY91       0.2639
    151  O         30.8310   21.3310   47.6040 O.2    91  GLY91      -0.2714
    152  N         32.9760   21.9960   47.7100 N.am   92  LEU92      -0.1963
    153  CA        32.8320   23.0740   46.7280 C.3    92  LEU92       0.1728
    154  C         32.6200   22.4290   45.3570 C.2    92  LEU92       0.2616
    155  O         32.9320   21.2390   45.1890 O.2    92  LEU92      -0.2715
    156  CB        34.1180   23.9240   46.7230 C.3    92  LEU92       0.0311
    157  CG        33.9510   25.4320   46.4690 C.3    92  LEU92       0.0022
    158  CD1       33.1900   26.0740   47.6360 C.3    92  LEU92       0.0001
    159  CD2       35.3040   26.0620   46.3390 C.3    92  LEU92       0.0001
    160  N         32.1210   23.1840   44.3760 N.am   93  CYS93      -0.1968
    161  CA        31.8930   22.6410   43.0290 C.3    93  CYS93       0.1712
    162  C         33.1580   22.0840   42.3620 C.2    93  CYS93       0.2296
    163  O         33.1080   21.1520   41.5620 O.2    93  CYS93      -0.2864
    164  CB        31.2700   23.7060   42.1060 C.3    93  CYS93       0.0983
    165  SG        32.2480   25.2250   41.9770 S.3    93  CYS93      -0.0798
@<TRIPOS>BOND
     1     4     3    2
     2    59    58    1
     3     3     2    1
     4    51    52    1
     5    58    57    1
     6    69    68   ar
     7    69    67   ar
     8    57    56    1
     9     6     5    1
    10     6     7    1
    11     2     1    1
    12     2     5    1
    13    68    66   ar
    14    56    55    1
    15     8     7    1
    16     8     9    2
    17    67    65   ar
    18    52    55    1
    19    52    53    1
    20    11     9    1
    21   163   162    2
    22     9    10    1
    23    36    35   ar
    24   165   164    1
    25    66    65   ar
    26    37    35   ar
    27   164   161    1
    28    53    54    2
    29    53    60   am
    30    65    64    1
    31   162   161    1
    32    35    34    1
    33    60    61    1
    34   161   160    1
    35    19    18    1
    36    19    20    2
    37    18    17    1
    38    64    61    1
    39    22    20    1
    40    20    21    1
    41    61    62    1
    42    34    33    1
    43   160   154   am
    44    16    17    1
    45    16    13    1
    46    33    30    1
    47    81    80    1
    48   155   154    2
    49    79    80   ar
    50    79    77   ar
    51    62    63    2
    52    62    70   am
    53   154   153    1
    54    80    78   ar
    55    77    75   ar
    56    13    12    1
    57    13    14    1
    58    70    71    1
    59    44    42    1
    60    30    29    1
    61    30    31    1
    62   159   157    1
    63   157   156    1
    64   157   158    1
    65   156   153    1
    66    29    25   am
    67   153   152    1
    68   131   130    2
    69    48    47    2
    70    49    50    1
    71    49    46    1
    72    31    32    2
    73    31    38   am
    74    78    76   ar
    75    14    15    2
    76    75    76   ar
    77    75    74    1
    78    38    39    1
    79    47    46    1
    80    71    74    1
    81    71    72    1
    82   151   150    2
    83    42    43    1
    84    42    39    1
    85   152   150   am
    86   130   129    1
    87    25    24    1
    88    25    26    2
    89   150   149    1
    90    46    45    1
    91    39    40    1
    92    24    23    1
    93    24    27    1
    94    72    73    2
    95    72    82   am
    96   132   129    1
    97   132   133    1
    98    28    27    1
    99   149   148    1
   100   129   128    1
   101    82    83    1
   102   140   141    1
   103   148   142   am
   104    40    41    2
   105    90    89    1
   106   133   134   ar
   107   133   135   ar
   108   134   136   ar
   109    83    86    1
   110    83    84    1
   111    89    88    1
   112   142   141    1
   113   142   143    2
   114   141   144    1
   115   109   107    1
   116    86    87    1
   117   135   137   ar
   118   136   138   ar
   119    84    85    2
   120   108   106    1
   121    88    87    1
   122   144   145    1
   123   107   106    1
   124   137   138   ar
   125   138   139    1
   126   106   103    1
   127   145   146   ar
   128   145   147   ar
   129   101    99    1
   130   103   104    1
   131   103   102    1
   132   100    99    1
   133   105   104    2
   134   116   114    1
   135   104   110   am
   136    99    98    2
   137   115   114    1
   138   110   111    1
   139    91    92    1
   140   114   111    1
   141    98    97    1
   142   127   125    1
   143   111   112    1
   144    96    97    1
   145    96    95    1
   146    92    95    1
   147    92    93    1
   148   125   126    1
   149   125   124    2
   150   112   113    2
   151    93    94    2
   152   124   123    1
   153   123   122    1
   154   121   122    1
   155   121   118    1
   156   117   118    1
   157   119   118    1
   158   119   120    2
