@<TRIPOS>MOLECULE
tmp/1is2A00.pdb
 198 193 0 0 0
SMALL
GASTEIGER

@<TRIPOS>ATOM
      1  N          5.1980    5.0840    9.4140 N.3   102  LEU102     -0.1245
      2  CA         5.5930    4.9950    8.0040 C.3   102  LEU102      0.1561
      3  C          4.4490    5.4510    7.1020 C.2   102  LEU102      0.2260
      4  O          4.6730    6.1590    6.1230 O.2   102  LEU102     -0.2867
      5  CB         6.0210    3.5690    7.6410 C.3   102  LEU102      0.0270
      6  CG         7.4310    3.1530    8.0970 C.3   102  LEU102      0.0019
      7  CD1        8.4360    4.1740    7.5930 C.3   102  LEU102      0.0001
      8  CD2        7.5050    3.0630    9.6280 C.3   102  LEU102      0.0001
      9  N          6.3030    1.5340    4.1660 N.3   136  TYR136     -0.1241
     10  CA         7.4050    1.4930    3.2160 C.3   136  TYR136      0.1605
     11  C          8.2860    0.3150    3.5870 C.2   136  TYR136      0.2264
     12  O          8.8550    0.2750    4.6780 O.2   136  TYR136     -0.2867
     13  CB         8.1980    2.7970    3.2940 C.3   136  TYR136      0.0534
     14  CG         9.3510    2.8870    2.3200 C.ar  136  TYR136     -0.0201
     15  CD1        9.1290    2.9660    0.9380 C.ar  136  TYR136     -0.0009
     16  CD2       10.6640    2.8800    2.7770 C.ar  136  TYR136     -0.0009
     17  CE1       10.1980    3.0340    0.0420 C.ar  136  TYR136      0.0417
     18  CE2       11.7330    2.9490    1.8970 C.ar  136  TYR136      0.0417
     19  CZ        11.5000    3.0250    0.5320 C.ar  136  TYR136      0.1957
     20  OH        12.5770    3.1000   -0.3200 O.3   136  TYR136     -0.2866
     21  N         11.5840   -1.5700    2.6950 N.3   138  GLN138     -0.1231
     22  CA        12.8650   -1.5630    1.9960 C.3   138  GLN138      0.1698
     23  C         13.8290   -2.5990    2.5390 C.2   138  GLN138      0.2593
     24  O         14.3690   -3.4160    1.7880 O.2   138  GLN138     -0.2718
     25  CB        13.5090   -0.1800    2.0960 C.3   138  GLN138      0.0381
     26  CG        14.9620   -0.1280    1.6480 C.3   138  GLN138      0.0905
     27  CD        15.5430    1.2770    1.7330 C.2   138  GLN138      0.2608
     28  OE1       15.1420    2.1720    0.9870 O.2   138  GLN138     -0.2717
     29  NE2       16.4860    1.4770    2.6540 N.am  138  GLN138     -0.0878
     30  N         14.0410   -2.5590    3.8520 N.am  139  THR139     -0.1939
     31  CA        14.9600   -3.4760    4.5020 C.3   139  THR139      0.2028
     32  C         14.5450   -4.9320    4.3980 C.2   139  THR139      0.2642
     33  O         13.3670   -5.2630    4.4370 O.2   139  THR139     -0.2714
     34  CB        15.1270   -3.1340    6.0040 C.3   139  THR139      0.1808
     35  OG1       15.5830   -1.7820    6.1430 O.3   139  THR139     -0.2208
     36  CG2       16.1400   -4.0730    6.6470 C.3   139  THR139      0.0379
     37  N         15.5310   -5.8030    4.2710 N.am  140  GLU140     -0.1963
     38  CA        15.2700   -7.2320    4.1930 C.3   140  GLU140      0.1733
     39  C         16.0450   -7.9520    5.3020 C.2   140  GLU140      0.2616
     40  O         17.0000   -7.4010    5.8580 O.2   140  GLU140     -0.2715
     41  CB        15.6950   -7.7660    2.8240 C.3   140  GLU140      0.0429
     42  CG        14.7080   -7.4640    1.6990 C.3   140  GLU140      0.1163
     43  CD        15.2770   -7.7740    0.3160 C.2   140  GLU140      0.3649
     44  OE1       16.2320   -8.5810    0.2250 O.co2 140  GLU140     -0.2457
     45  OE2       14.7570   -7.2160   -0.6770 O.co2 140  GLU140     -0.2457
     46  N         15.6470   -9.1820    5.6070 N.am  141  MET141     -0.1963
     47  CA        16.3220   -9.9480    6.6470 C.3   141  MET141      0.1736
     48  C         17.8200  -10.0180    6.3820 C.2   141  MET141      0.2617
     49  O         18.6260  -10.0160    7.3180 O.2   141  MET141     -0.2715
     50  CB        15.7750  -11.3780    6.7190 C.3   141  MET141      0.0427
     51  CG        16.3980  -12.1830    7.8530 C.3   141  MET141      0.0599
     52  SD        15.9150  -13.9130    7.9240 S.3   141  MET141     -0.1393
     53  CE        14.1530  -13.7550    8.2000 C.3   141  MET141      0.0692
     54  N         18.1910  -10.0650    5.1020 N.am  142  GLY142     -0.1940
     55  CA        19.5940  -10.1820    4.7440 C.3   142  GLY142      0.2014
     56  C         20.3330   -8.9130    4.3640 C.2   142  GLY142      0.2639
     57  O         21.5640   -8.9270    4.2230 O.2   142  GLY142     -0.2714
     58  N         19.6100   -7.8120    4.2030 N.am  143  HIS143     -0.1959
     59  CA        20.2610   -6.5680    3.8370 C.3   143  HIS143      0.1787
     60  C         19.5750   -5.3530    4.4180 C.2   143  HIS143      0.2621
     61  O         18.3870   -5.1370    4.2120 O.2   143  HIS143     -0.2715
     62  CB        20.3560   -6.4220    2.3020 C.3   143  HIS143      0.0785
     63  CG        21.2170   -7.4610    1.6540 C.ar  143  HIS143      0.0821
     64  ND1       20.7220   -8.6730    1.2280 N.ar  143  HIS143     -0.2267
     65  CD2       22.5580   -7.5180    1.4670 C.ar  143  HIS143      0.1154
     66  CE1       21.7160   -9.4370    0.8140 C.ar  143  HIS143      0.1986
     67  NE2       22.8420   -8.7610    0.9490 N.ar  143  HIS143     -0.2212
     68  N         20.3460   -4.5630    5.1530 N.am  144  GLY144     -0.1940
     69  CA        19.8170   -3.3560    5.7420 C.3   144  GLY144      0.2014
     70  C         20.6570   -2.1870    5.2770 C.2   144  GLY144      0.2639
     71  O         20.1390   -1.2230    4.7210 O.2   144  GLY144     -0.2714
     72  N         21.9640   -2.2730    5.5040 N.am  145  THR145     -0.1950
     73  CA        22.8750   -1.2140    5.0950 C.3   145  THR145      0.1897
     74  C         23.1800   -1.2640    3.5880 C.2   145  THR145      0.2313
     75  O         23.1190   -0.2410    2.9030 O.2   145  THR145     -0.2863
     76  CB        24.2210   -1.3020    5.8700 C.3   145  THR145      0.1794
     77  OG1       23.9750   -1.1940    7.2770 O.3   145  THR145     -0.2208
     78  CG2       25.1650   -0.1820    5.4450 C.3   145  THR145      0.0378
     79  N         11.3010   -5.6810    9.2760 N.3   176  TRP176     -0.1228
     80  CA        11.2950   -4.4720   10.1160 C.3   176  TRP176      0.1722
     81  C         10.2640   -3.3530    9.8670 C.2   176  TRP176      0.2437
     82  O          9.8290   -2.7080   10.8190 O.2   176  TRP176     -0.2733
     83  CB        12.6930   -3.8190   10.1810 C.3   176  TRP176      0.0563
     84  CG        13.6740   -4.5050   11.1180 C.ar  176  TRP176      0.0003
     85  CD1       14.7760   -5.2370   10.7620 C.ar  176  TRP176      0.0946
     86  CD2       13.6060   -4.5600   12.5580 C.ar  176  TRP176      0.0152
     87  NE1       15.3920   -5.7460   11.8870 N.ar  176  TRP176     -0.2442
     88  CE2       14.6940   -5.3480   12.9990 C.ar  176  TRP176      0.0810
     89  CE3       12.7320   -4.0220   13.5110 C.ar  176  TRP176      0.0012
     90  CZ2       14.9270   -5.6140   14.3580 C.ar  176  TRP176      0.0191
     91  CZ3       12.9630   -4.2850   14.8660 C.ar  176  TRP176      0.0001
     92  CH2       14.0500   -5.0740   15.2740 C.ar  176  TRP176      0.0015
     93  N          9.8610   -3.1020    8.6060 N.am  177  PRO177     -0.2718
     94  CA         8.8850   -2.0300    8.3410 C.3   177  PRO177      0.1535
     95  C          7.7430   -1.8840    9.3610 C.2   177  PRO177      0.2599
     96  O          6.9720   -2.8130    9.5850 O.2   177  PRO177     -0.2715
     97  CB         8.3700   -2.3740    6.9490 C.3   177  PRO177      0.0310
     98  CG         9.5810   -2.9680    6.3040 C.3   177  PRO177      0.0237
     99  CD        10.1150   -3.8850    7.3820 C.3   177  PRO177      0.0939
    100  N          7.6420   -0.7020    9.9640 N.am  178  GLY178     -0.1955
    101  CA         6.5970   -0.4630   10.9410 C.3   178  GLY178      0.1869
    102  C          5.2290   -0.4050   10.2870 C.2   178  GLY178      0.2309
    103  O          5.0400    0.2960    9.2890 O.2   178  GLY178     -0.2863
    104  N         10.7030   -7.0380   20.9590 N.3   229  LYS229     -0.1245
    105  CA        12.0100   -6.4020   20.8990 C.3   229  LYS229      0.1561
    106  C         12.3780   -5.7310   22.2270 C.2   229  LYS229      0.2260
    107  O         11.6140   -5.7730   23.1940 O.2   229  LYS229     -0.2867
    108  CB        11.9990   -5.3620   19.7850 C.3   229  LYS229      0.0271
    109  CG        11.5600   -5.9230   18.4230 C.3   229  LYS229      0.0035
    110  CD        10.6040   -4.9690   17.6970 C.3   229  LYS229      0.0206
    111  CE         9.2510   -4.8890   18.3960 C.3   229  LYS229      0.1093
    112  NZ         8.2730   -4.0420   17.6170 N.3   229  LYS229     -0.1314
    113  N          9.8050   -0.7300   21.6060 N.3   232  TYR232     -0.1241
    114  CA         8.8450   -0.6810   20.5110 C.3   232  TYR232      0.1605
    115  C          7.6860   -1.6690   20.6300 C.2   232  TYR232      0.2264
    116  O          7.2590   -2.2470   19.6230 O.2   232  TYR232     -0.2867
    117  CB         9.5740   -0.9040   19.1730 C.3   232  TYR232      0.0534
    118  CG        10.0330    0.3720   18.5070 C.ar  232  TYR232     -0.0201
    119  CD1       10.8270    1.2850   19.1930 C.ar  232  TYR232     -0.0009
    120  CD2        9.6570    0.6810   17.1920 C.ar  232  TYR232     -0.0009
    121  CE1       11.2360    2.4740   18.6040 C.ar  232  TYR232      0.0417
    122  CE2       10.0680    1.8810   16.5880 C.ar  232  TYR232      0.0417
    123  CZ        10.8570    2.7690   17.3100 C.ar  232  TYR232      0.1957
    124  OH        11.2660    3.9640   16.7620 O.3   232  TYR232     -0.2866
    125  N          6.3420   -3.9590   13.8890 N.3   237  ASN237     -0.1240
    126  CA         7.4080   -4.0710   12.9120 C.3   237  ASN237      0.1653
    127  C          7.1690   -5.4140   12.2340 C.2   237  ASN237      0.2266
    128  O          6.9750   -6.4240   12.9110 O.2   237  ASN237     -0.2867
    129  CB         8.7650   -4.0170   13.6170 C.3   237  ASN237      0.1155
    130  CG         9.0290   -2.6600   14.2460 C.2   237  ASN237      0.2627
    131  OD1        8.8690   -2.4770   15.4540 O.2   237  ASN237     -0.2716
    132  ND2        9.4140   -1.6900   13.4220 N.am  237  ASN237     -0.0877
    133  N         17.0880    2.7600   19.1140 N.3   412  PRO412     -0.2116
    134  CA        17.2660    2.3540   17.7140 C.3   412  PRO412      0.1372
    135  C         17.6390    3.5180   16.7750 C.2   412  PRO412      0.2244
    136  O         17.9550    3.3020   15.6050 O.2   412  PRO412     -0.2868
    137  CB        15.9320    1.6780   17.3630 C.3   412  PRO412      0.0268
    138  CG        14.9340    2.3220   18.3110 C.3   412  PRO412      0.0207
    139  CD        15.7250    2.4710   19.5980 C.3   412  PRO412      0.0892
    140  N         20.4980    3.2900   14.7150 N.3   415  THR415     -0.1203
    141  CA        20.3620    2.4170   13.5460 C.3   415  THR415      0.1994
    142  C         19.5890    3.0900   12.3960 C.2   415  THR415      0.2617
    143  O         19.8650    2.8490   11.2250 O.2   415  THR415     -0.2717
    144  CB        19.6320    1.1140   13.9160 C.3   415  THR415      0.1784
    145  OG1       20.5410    0.2310   14.5800 O.3   415  THR415     -0.2211
    146  CG2       19.0870    0.4300   12.6700 C.3   415  THR415      0.0376
    147  N         18.6250    3.9280   12.7510 N.am  416  PHE416     -0.1975
    148  CA        17.8000    4.6520   11.7920 C.3   416  PHE416      0.1639
    149  C         18.6370    5.5670   10.9250 C.2   416  PHE416      0.2290
    150  O         19.6520    6.0980   11.3740 O.2   416  PHE416     -0.2864
    151  CB        16.7730    5.5210   12.5230 C.3   416  PHE416      0.0560
    152  CG        15.7760    4.7460   13.3220 C.ar  416  PHE416     -0.0200
    153  CD1       14.9620    5.3980   14.2510 C.ar  416  PHE416     -0.0042
    154  CD2       15.6080    3.3790   13.1230 C.ar  416  PHE416     -0.0042
    155  CE1       13.9970    4.7070   14.9590 C.ar  416  PHE416     -0.0003
    156  CE2       14.6380    2.6760   13.8320 C.ar  416  PHE416     -0.0003
    157  CZ        13.8310    3.3420   14.7490 C.ar  416  PHE416     -0.0000
    158  N         20.6810    5.0430    8.6270 N.3   418  GLY418     -0.1210
    159  CA        22.0630    4.6280    8.5160 C.3   418  GLY418      0.1956
    160  C         22.7810    4.2720    9.8050 C.2   418  GLY418      0.2611
    161  O         22.7680    5.0320   10.7750 O.2   418  GLY418     -0.2717
    162  N         23.4060    3.0990    9.8110 N.am  419  GLU419     -0.1979
    163  CA        24.1770    2.6380   10.9610 C.3   419  GLU419      0.1602
    164  C         25.1420    3.7440   11.3540 C.2   419  GLU419      0.2287
    165  O         25.7800    4.3450   10.4950 O.2   419  GLU419     -0.2864
    166  CB        24.9630    1.3940   10.5870 C.3   419  GLU419      0.0415
    167  CG        24.1750    0.1280   10.7600 C.3   419  GLU419      0.1163
    168  CD        23.9330   -0.1810   12.2230 C.2   419  GLU419      0.3649
    169  OE1       24.9250   -0.4350   12.9440 O.co2 419  GLU419     -0.2457
    170  OE2       22.7570   -0.1640   12.6430 O.co2 419  GLU419     -0.2457
    171  N         28.1310    3.7650   12.6270 N.3   421  THR421     -0.1203
    172  CA        29.5040    3.5950   12.1540 C.3   421  THR421      0.1994
    173  C         29.5940    3.8890   10.6520 C.2   421  THR421      0.2617
    174  O         30.5070    4.5830   10.1880 O.2   421  THR421     -0.2717
    175  CB        30.0180    2.1690   12.4610 C.3   421  THR421      0.1784
    176  OG1       30.1460    2.0170   13.8830 O.3   421  THR421     -0.2211
    177  CG2       31.3790    1.9300   11.8150 C.3   421  THR421      0.0376
    178  N         28.6290    3.3830    9.8970 N.am  422  VAL422     -0.1979
    179  CA        28.6150    3.6180    8.4580 C.3   422  VAL422      0.1595
    180  C         28.4790    5.1140    8.1970 C.2   422  VAL422      0.2287
    181  O         29.1790    5.6660    7.3520 O.2   422  VAL422     -0.2864
    182  CB        27.4720    2.8420    7.7920 C.3   422  VAL422      0.0276
    183  CG1       27.3530    3.2220    6.3220 C.3   422  VAL422      0.0022
    184  CG2       27.7380    1.3510    7.9300 C.3   422  VAL422      0.0022
    185  N         31.6920    6.9070    8.7280 N.3   425  LEU425     -0.1245
    186  CA        32.6100    6.6070    7.6280 C.3   425  LEU425      0.1561
    187  C         32.2380    7.4300    6.3920 C.2   425  LEU425      0.2260
    188  O         33.0880    7.7580    5.5580 O.2   425  LEU425     -0.2867
    189  CB        32.5610    5.1120    7.3180 C.3   425  LEU425      0.0270
    190  CG        33.7600    4.2260    7.6570 C.3   425  LEU425      0.0019
    191  CD1       34.6580    4.8690    8.6850 C.3   425  LEU425      0.0001
    192  CD2       33.2490    2.8800    8.1230 C.3   425  LEU425      0.0001
    193  N         39.8710    2.5430    8.9630 N.3   502  SER502     -0.1217
    194  CA        38.5130    2.8810    9.3790 C.3   502  SER502      0.1889
    195  C         38.3270    3.3750   10.8130 C.2   502  SER502      0.2288
    196  O         37.5750    4.3230   11.0470 O.2   502  SER502     -0.2866
    197  CB        37.5610    1.7180    9.0930 C.3   502  SER502      0.2089
    198  OG        38.0160    0.4930    9.6250 O.3   502  SER502     -0.2183
@<TRIPOS>BOND
     1    45    43   ar
     2    20    19    1
     3    17    19   ar
     4    17    15   ar
     5    44    43   ar
     6    43    42    1
     7    19    18   ar
     8    66    67   ar
     9    66    64   ar
    10    15    14   ar
    11    67    65   ar
    12    28    27    2
    13    64    63   ar
    14    65    63   ar
    15    26    27    1
    16    26    25    1
    17    63    62    1
    18    42    41    1
    19    27    29   am
    20    24    23    2
    21    18    16   ar
    22    22    25    1
    23    22    23    1
    24    22    21    1
    25    62    59    1
    26    14    16   ar
    27    14    13    1
    28    23    30   am
    29    41    38    1
    30    75    74    2
    31    10    13    1
    32    10    11    1
    33    10     9    1
    34    11    12    2
    35    74    73    1
    36    59    58    1
    37    59    60    1
    38    30    31    1
    39    38    37    1
    40    38    39    1
    41    58    56   am
    42    61    60    2
    43    57    56    2
    44    37    32   am
    45    56    55    1
    46    32    33    2
    47    32    31    1
    48    60    68   am
    49    31    34    1
    50    71    70    2
    51    55    54    1
    52    73    72    1
    53    73    76    1
    54    54    48   am
    55    68    69    1
    56    70    72   am
    57    70    69    1
    58    39    46   am
    59    39    40    2
    60    78    76    1
    61   188   187    2
    62    46    47    1
    63    76    77    1
    64    34    35    1
    65    34    36    1
    66     4     3    2
    67    98    97    1
    68    98    99    1
    69   183   182    1
    70    48    47    1
    71    48    49    2
    72   187   186    1
    73    47    50    1
    74    50    51    1
    75    97    94    1
    76     3     2    1
    77   189   186    1
    78   189   190    1
    79   181   180    2
    80    99    93    1
    81     7     6    1
    82   186   185    1
    83     5     2    1
    84     5     6    1
    85   190   192    1
    86   190   191    1
    87   182   184    1
    88   182   179    1
    89    51    52    1
    90    52    53    1
    91     2     1    1
    92     6     8    1
    93   180   179    1
    94    94    93    1
    95    94    95    1
    96   179   178    1
    97   159   158    1
    98   159   160    1
    99    93    81   am
   100   193   194    1
   101   197   194    1
   102   197   198    1
   103    79    80    1
   104   103   102    2
   105    95    96    2
   106    95   100   am
   107   194   195    1
   108   160   162   am
   109   160   161    2
   110   162   163    1
   111    81    80    1
   112    81    82    2
   113   178   173   am
   114   100   101    1
   115    80    83    1
   116    83    84    1
   117   174   173    2
   118   102   101    1
   119   165   164    2
   120   166   167    1
   121   166   163    1
   122   173   172    1
   123   167   168    1
   124    85    84   ar
   125    85    87   ar
   126   195   196    2
   127   149   150    2
   128   149   148    1
   129   163   164    1
   130    84    86   ar
   131   143   142    2
   132   148   151    1
   133   148   147    1
   134   177   175    1
   135    87    88   ar
   136   172   175    1
   137   172   171    1
   138   168   170   ar
   139   168   169   ar
   140   127   128    2
   141   127   126    1
   142   142   147   am
   143   142   141    1
   144   175   176    1
   145   151   152    1
   146    86    88   ar
   147    86    89   ar
   148   146   144    1
   149   126   129    1
   150   126   125    1
   151    88    90   ar
   152   154   152   ar
   153   154   156   ar
   154   152   153   ar
   155   132   130   am
   156    89    91   ar
   157   141   144    1
   158   141   140    1
   159   129   130    1
   160   156   157   ar
   161   144   145    1
   162   130   131    2
   163   153   155   ar
   164    90    92   ar
   165   157   155   ar
   166    91    92   ar
   167   136   135    2
   168   122   120   ar
   169   122   123   ar
   170   124   123    1
   171   135   134    1
   172   120   118   ar
   173   123   121   ar
   174   137   134    1
   175   137   138    1
   176   112   111    1
   177   110   111    1
   178   110   109    1
   179   134   133    1
   180   138   139    1
   181   109   108    1
   182   118   117    1
   183   118   119   ar
   184   121   119   ar
   185   133   139    1
   186   117   114    1
   187   116   115    2
   188   108   105    1
   189   114   115    1
   190   114   113    1
   191   105   104    1
   192   105   106    1
   193   106   107    2
