@<TRIPOS>MOLECULE
tmp/1is2A01.pdb
 140 135 0 0 0
SMALL
GASTEIGER

@<TRIPOS>ATOM
      1  N         14.5100   14.2810   40.4510 N.3   299  TYR299     -0.1241
      2  CA        14.5790   13.2220   41.4250 C.3   299  TYR299      0.1605
      3  C         15.7750   13.4100   42.3630 C.2   299  TYR299      0.2264
      4  O         15.6640   13.1710   43.5670 O.2   299  TYR299     -0.2867
      5  CB        14.6790   11.8660   40.7430 C.3   299  TYR299      0.0534
      6  CG        14.6960   10.7250   41.7290 C.ar  299  TYR299     -0.0201
      7  CD1       13.5770   10.4510   42.5210 C.ar  299  TYR299     -0.0009
      8  CD2       15.8420    9.9510   41.9140 C.ar  299  TYR299     -0.0009
      9  CE1       13.6000    9.4380   43.4810 C.ar  299  TYR299      0.0417
     10  CE2       15.8790    8.9300   42.8750 C.ar  299  TYR299      0.0417
     11  CZ        14.7530    8.6830   43.6580 C.ar  299  TYR299      0.1957
     12  OH        14.7830    7.6990   44.6350 O.3   299  TYR299     -0.2866
     13  N         15.3570   13.2100   46.2260 N.3   303  ARG303     -0.1245
     14  CA        15.9550   12.1180   46.9670 C.3   303  ARG303      0.1563
     15  C         17.0150   12.5520   47.9720 C.2   303  ARG303      0.2260
     16  O         17.9830   13.2190   47.6230 O.2   303  ARG303     -0.2867
     17  CB        16.5730   11.1240   45.9850 C.3   303  ARG303      0.0307
     18  CG        17.2190    9.9130   46.6180 C.3   303  ARG303      0.0489
     19  CD        16.2000    9.0770   47.3510 C.3   303  ARG303      0.2205
     20  NE        16.7270    7.7580   47.6830 N.pl3 303  ARG303     -0.0865
     21  CZ        15.9760    6.7380   48.0800 C.cat 303  ARG303      0.5346
     22  NH1       14.6640    6.8880   48.1990 N.pl3 303  ARG303      0.1354
     23  NH2       16.5310    5.5620   48.3390 N.pl3 303  ARG303      0.1354
     24  N         19.6880   11.0850   50.8720 N.3   305  GLN305     -0.1231
     25  CA        20.3130    9.8240   51.2450 C.3   305  GLN305      0.1698
     26  C         21.7180   10.0730   51.7350 C.2   305  GLN305      0.2593
     27  O         22.3210   11.0880   51.3970 O.2   305  GLN305     -0.2718
     28  CB        20.3730    8.8950   50.0310 C.3   305  GLN305      0.0381
     29  CG        20.6210    7.4320   50.3670 C.3   305  GLN305      0.0905
     30  CD        19.3860    6.7480   50.9210 C.2   305  GLN305      0.2608
     31  OE1       19.4160    5.5640   51.2700 O.2   305  GLN305     -0.2717
     32  NE2       18.2830    7.4900   50.9930 N.am  305  GLN305     -0.0878
     33  N         22.2280    9.1330   52.5280 N.am  306  SER306     -0.1938
     34  CA        23.5790    9.2070   53.0750 C.3   306  SER306      0.2055
     35  C         23.8560   10.5490   53.7270 C.2   306  SER306      0.2642
     36  O         22.9340   11.2360   54.1610 O.2   306  SER306     -0.2714
     37  CB        24.5910    8.9440   51.9630 C.3   306  SER306      0.2130
     38  OG        24.3030    7.7100   51.3310 O.3   306  SER306     -0.2179
     39  N         25.1260   10.9300   53.7900 N.am  307  GLU307     -0.1976
     40  CA        25.4810   12.2000   54.4040 C.3   307  GLU307      0.1602
     41  C         26.8180   12.7450   53.9490 C.2   307  GLU307      0.2287
     42  O         27.7280   11.9980   53.5830 O.2   307  GLU307     -0.2864
     43  CB        25.4820   12.0680   55.9340 C.3   307  GLU307      0.0415
     44  CG        26.4800   11.0600   56.4710 C.3   307  GLU307      0.1163
     45  CD        26.1530   10.5910   57.8930 C.2   307  GLU307      0.3649
     46  OE1       26.8710    9.6970   58.3900 O.co2 307  GLU307     -0.2457
     47  OE2       25.1880   11.1060   58.5080 O.co2 307  GLU307     -0.2457
     48  N         20.6320   14.1860   47.2100 N.3   317  ILE317     -0.1245
     49  CA        21.7590   13.5500   46.5570 C.3   317  ILE317      0.1561
     50  C         22.3800   14.4490   45.5110 C.2   317  ILE317      0.2260
     51  O         23.5080   14.2170   45.0940 O.2   317  ILE317     -0.2867
     52  CB        21.4010   12.1820   45.9420 C.3   317  ILE317      0.0252
     53  CG1       20.2290   12.3040   44.9690 C.3   317  ILE317      0.0019
     54  CG2       21.1060   11.1840   47.0630 C.3   317  ILE317      0.0019
     55  CD1       19.9500   11.0070   44.2210 C.3   317  ILE317      0.0001
     56  N         25.8950   15.8970   46.2910 N.3   320  PHE320     -0.1241
     57  CA        27.1280   15.1330   46.1040 C.3   320  PHE320      0.1605
     58  C         27.7740   15.5360   44.7910 C.2   320  PHE320      0.2264
     59  O         27.0870   15.6230   43.7560 O.2   320  PHE320     -0.2867
     60  CB        26.8400   13.6370   46.0700 C.3   320  PHE320      0.0534
     61  CG        26.4260   13.0810   47.3900 C.ar  320  PHE320     -0.0203
     62  CD1       27.3040   13.1150   48.4740 C.ar  320  PHE320     -0.0042
     63  CD2       25.1530   12.5610   47.5700 C.ar  320  PHE320     -0.0042
     64  CE1       26.9140   12.6410   49.7220 C.ar  320  PHE320     -0.0003
     65  CE2       24.7480   12.0810   48.8150 C.ar  320  PHE320     -0.0003
     66  CZ        25.6290   12.1220   49.8960 C.ar  320  PHE320     -0.0000
     67  N         29.8320   13.8600   42.9520 N.3   322  THR322     -0.1203
     68  CA        29.7340   12.7890   41.9930 C.3   322  THR322      0.1994
     69  C         28.3640   12.7870   41.3120 C.2   322  THR322      0.2617
     70  O         28.2470   12.3910   40.1500 O.2   322  THR322     -0.2717
     71  CB        29.9550   11.4160   42.6520 C.3   322  THR322      0.1784
     72  OG1       29.1140   11.2950   43.8080 O.3   322  THR322     -0.2211
     73  CG2       31.4120   11.2370   43.0340 C.3   322  THR322      0.0376
     74  N         27.3280   13.2120   42.0300 N.am  323  GLN323     -0.1979
     75  CA        25.9940   13.2330   41.4520 C.3   323  GLN323      0.1601
     76  C         25.9300   14.3290   40.3900 C.2   323  GLN323      0.2287
     77  O         25.4270   14.1000   39.2900 O.2   323  GLN323     -0.2864
     78  CB        24.9350   13.4940   42.5270 C.3   323  GLN323      0.0394
     79  CG        23.5100   13.1950   42.0790 C.3   323  GLN323      0.0908
     80  CD        23.2820   11.7170   41.8380 C.2   323  GLN323      0.2608
     81  OE1       24.1900   10.8970   42.0050 O.2   323  GLN323     -0.2717
     82  NE2       22.0690   11.3670   41.4380 N.am  323  GLN323     -0.0878
     83  N         27.7960   13.4210   37.2520 N.3   326  LYS326     -0.1245
     84  CA        27.0820   12.4820   36.4010 C.3   326  LYS326      0.1561
     85  C         26.0260   13.1930   35.5620 C.2   326  LYS326      0.2260
     86  O         25.8810   12.9060   34.3790 O.2   326  LYS326     -0.2867
     87  CB        26.3520   11.4170   37.2270 C.3   326  LYS326      0.0271
     88  CG        27.2190   10.3450   37.8630 C.3   326  LYS326      0.0035
     89  CD        26.3680    9.4230   38.7330 C.3   326  LYS326      0.0206
     90  CE        27.2280    8.3820   39.4390 C.3   326  LYS326      0.1093
     91  NZ        26.4500    7.4200   40.2830 N.3   326  LYS326     -0.1314
     92  N         20.7160    5.2230   35.8650 N.3   390  MET390     -0.1230
     93  CA        21.5020    4.6940   36.9740 C.3   390  MET390      0.1702
     94  C         21.7610    5.7430   38.0640 C.2   390  MET390      0.2592
     95  O         22.0110    5.3990   39.2140 O.2   390  MET390     -0.2718
     96  CB        22.8330    4.1390   36.4660 C.3   390  MET390      0.0401
     97  CG        22.6890    2.9710   35.4910 C.3   390  MET390      0.0596
     98  SD        24.2730    2.1460   35.1670 S.3   390  MET390     -0.1393
     99  CE        24.8910    3.1290   33.7910 C.3   390  MET390      0.0692
    100  N         21.7020    7.0180   37.7010 N.am  391  ALA391     -0.1966
    101  CA        21.9360    8.0790   38.6600 C.3   391  ALA391      0.1728
    102  C         20.7770    8.1550   39.6470 C.2   391  ALA391      0.2616
    103  O         20.9080    8.7780   40.7020 O.2   391  ALA391     -0.2715
    104  CB        22.1010    9.4200   37.9450 C.3   391  ALA391      0.0334
    105  N         19.6470    7.5360   39.2930 N.am  392  CYS392     -0.1954
    106  CA        18.4650    7.5270   40.1520 C.3   392  CYS392      0.1843
    107  C         18.4920    6.3660   41.1530 C.2   392  CYS392      0.2626
    108  O         17.5580    6.1830   41.9300 O.2   392  CYS392     -0.2714
    109  CB        17.1820    7.4320   39.3070 C.3   392  CYS392      0.0997
    110  SG        16.7830    8.9450   38.4000 S.3   392  CYS392     -0.0797
    111  N         19.5640    5.5870   41.1310 N.am  393  GLY393     -0.1940
    112  CA        19.6480    4.4610   42.0350 C.3   393  GLY393      0.2014
    113  C         18.6780    3.3730   41.6180 C.2   393  GLY393      0.2639
    114  O         18.2990    3.2950   40.4460 O.2   393  GLY393     -0.2714
    115  N         18.2670    2.5450   42.5760 N.am  394  GLY394     -0.1939
    116  CA        17.3630    1.4440   42.2930 C.3   394  GLY394      0.2014
    117  C         16.0430    1.8130   41.6430 C.2   394  GLY394      0.2638
    118  O         15.5530    1.1110   40.7500 O.2   394  GLY394     -0.2714
    119  N         15.4660    2.9210   42.0840 N.am  395  HIS395     -0.1973
    120  CA        14.1840    3.3680   41.5560 C.3   395  HIS395      0.1656
    121  C         14.2450    3.7110   40.0810 C.2   395  HIS395      0.2291
    122  O         13.2240    3.7120   39.3930 O.2   395  HIS395     -0.2864
    123  CB        13.6840    4.5590   42.3760 C.3   395  HIS395      0.0771
    124  CG        13.2050    4.1710   43.7390 C.ar  395  HIS395      0.0820
    125  ND1       13.2140    5.0370   44.8090 N.ar  395  HIS395     -0.2267
    126  CD2       12.7010    3.0040   44.2030 C.ar  395  HIS395      0.1154
    127  CE1       12.7370    4.4210   45.8750 C.ar  395  HIS395      0.1986
    128  NE2       12.4180    3.1850   45.5330 N.ar  395  HIS395     -0.2212
    129  N         15.5250    1.9070   37.9390 N.3   397  TYR397     -0.1241
    130  CA        15.3030    0.6360   37.2610 C.3   397  TYR397      0.1605
    131  C         13.8310    0.3080   37.0520 C.2   397  TYR397      0.2264
    132  O         13.4770   -0.4800   36.1600 O.2   397  TYR397     -0.2867
    133  CB        15.9580   -0.4860   38.0520 C.3   397  TYR397      0.0534
    134  CG        15.9870   -1.8170   37.3430 C.ar  397  TYR397     -0.0201
    135  CD1       16.9380   -2.0770   36.3530 C.ar  397  TYR397     -0.0009
    136  CD2       15.0780   -2.8230   37.6650 C.ar  397  TYR397     -0.0009
    137  CE1       16.9870   -3.3040   35.7040 C.ar  397  TYR397      0.0417
    138  CE2       15.1190   -4.0640   37.0170 C.ar  397  TYR397      0.0417
    139  CZ        16.0840   -4.2940   36.0390 C.ar  397  TYR397      0.1957
    140  OH        16.1850   -5.5320   35.4310 O.3   397  TYR397     -0.2866
@<TRIPOS>BOND
     1    99    98    1
     2    86    85    2
     3    98    97    1
     4   140   139    1
     5    97    96    1
     6    85    84    1
     7   137   139   ar
     8   137   135   ar
     9    92    93    1
    10   139   138   ar
    11   132   131    2
    12   135   134   ar
    13    84    87    1
    14    84    83    1
    15    96    93    1
    16    93    94    1
    17   138   136   ar
    18   131   130    1
    19    87    88    1
    20   130   129    1
    21   130   133    1
    22   134   136   ar
    23   134   133    1
    24   100    94   am
    25   100   101    1
    26    88    89    1
    27   104   101    1
    28    94    95    2
    29   110   109    1
    30   101   102    1
    31    89    90    1
    32    77    76    2
    33   105   102   am
    34   105   106    1
    35   109   106    1
    36   122   121    2
    37    90    91    1
    38   102   103    2
    39   121   120    1
    40    70    69    2
    41   106   107    1
    42    76    75    1
    43   114   113    2
    44     1     2    1
    45     5     2    1
    46     5     6    1
    47   118   117    2
    48   111   107   am
    49   111   112    1
    50   107   108    2
    51    69    68    1
    52    69    74   am
    53     2     3    1
    54    82    80   am
    55    75    74    1
    56    75    78    1
    57   120   119    1
    58   120   123    1
    59   113   112    1
    60   113   115   am
    61   117   119   am
    62   117   116    1
    63     6     8   ar
    64     6     7   ar
    65    80    81    2
    66    80    79    1
    67     8    10   ar
    68    68    71    1
    69    68    67    1
    70    79    78    1
    71   116   115    1
    72     3     4    2
    73   123   124    1
    74     7     9   ar
    75    71    73    1
    76    71    72    1
    77    10    11   ar
    78     9    11   ar
    79    11    12    1
    80   124   126   ar
    81   124   125   ar
    82    59    58    2
    83   126   128   ar
    84    55    53    1
    85    58    57    1
    86   125   127   ar
    87    53    52    1
    88    51    50    2
    89    50    49    1
    90   128   127   ar
    91    52    49    1
    92    52    54    1
    93    17    18    1
    94    17    14    1
    95    60    57    1
    96    60    61    1
    97    57    56    1
    98    13    14    1
    99    49    48    1
   100    18    19    1
   101    14    15    1
   102    19    20    1
   103    61    63   ar
   104    61    62   ar
   105    63    65   ar
   106    16    15    2
   107    20    21    2
   108    21    22    1
   109    21    23    1
   110    62    64   ar
   111    65    66   ar
   112    64    66   ar
   113    28    29    1
   114    28    25    1
   115    29    30    1
   116    24    25    1
   117    30    32   am
   118    30    31    2
   119    25    26    1
   120    38    37    1
   121    27    26    2
   122    26    33   am
   123    37    34    1
   124    33    34    1
   125    34    35    1
   126    42    41    2
   127    35    39   am
   128    35    36    2
   129    39    40    1
   130    41    40    1
   131    40    43    1
   132    43    44    1
   133    44    45    1
   134    45    46   ar
   135    45    47   ar
