@<TRIPOS>MOLECULE
tmp/1isgA01.pdb
 135 134 0 0 0
SMALL
GASTEIGER

@<TRIPOS>ATOM
      1  N         18.0380   65.5740   90.4620 N.3    76  TRP76      -0.1227
      2  CA        16.7840   65.1660   91.0670 C.3    76  TRP76       0.1737
      3  C         16.0760   64.0390   90.3540 C.2    76  TRP76       0.2595
      4  O         16.4690   63.6090   89.2690 O.2    76  TRP76      -0.2718
      5  CB        15.8310   66.3500   91.1330 C.3    76  TRP76       0.0564
      6  CG        15.6230   66.9710   89.7920 C.ar   76  TRP76       0.0003
      7  CD1       16.3810   67.9530   89.2050 C.ar   76  TRP76       0.0946
      8  CD2       14.6030   66.6400   88.8540 C.ar   76  TRP76       0.0152
      9  NE1       15.8860   68.2500   87.9610 N.ar   76  TRP76      -0.2442
     10  CE2       14.7940   67.4590   87.7210 C.ar   76  TRP76       0.0810
     11  CE3       13.5420   65.7330   88.8610 C.ar   76  TRP76       0.0012
     12  CZ2       13.9620   67.3960   86.6080 C.ar   76  TRP76       0.0191
     13  CZ3       12.7150   65.6710   87.7550 C.ar   76  TRP76       0.0001
     14  CH2       12.9290   66.5000   86.6410 C.ar   76  TRP76       0.0015
     15  N         15.0170   63.5660   90.9930 N.am   77  GLU77      -0.1965
     16  CA        14.1740   62.5140   90.4520 C.3    77  GLU77       0.1733
     17  C         12.8160   62.7060   91.1060 C.2    77  GLU77       0.2616
     18  O         12.7270   62.9070   92.3220 O.2    77  GLU77      -0.2715
     19  CB        14.7380   61.1200   90.7770 C.3    77  GLU77       0.0429
     20  CG        15.9830   60.7430   89.9750 C.3    77  GLU77       0.1163
     21  CD        15.6660   60.2810   88.5640 C.2    77  GLU77       0.3649
     22  OE1       14.5550   60.5760   88.0750 O.co2  77  GLU77      -0.2457
     23  OE2       16.5310   59.6310   87.9340 O.co2  77  GLU77      -0.2457
     24  N         11.7700   62.6960   90.2870 N.am   78  ASN78      -0.1958
     25  CA        10.4090   62.8340   90.7740 C.3    78  ASN78       0.1819
     26  C         10.1570   64.0810   91.5960 C.2    78  ASN78       0.2622
     27  O          9.4130   64.0300   92.5750 O.2    78  ASN78      -0.2715
     28  CB        10.0440   61.6050   91.6010 C.3    78  ASN78       0.1195
     29  CG        10.2150   60.3200   90.8220 C.2    78  ASN78       0.2630
     30  OD1        9.7490   60.2160   89.6870 O.2    78  ASN78      -0.2716
     31  ND2       10.8800   59.3320   91.4260 N.am   78  ASN78      -0.0877
     32  N         10.7530   65.2020   91.2010 N.am   79  SER79      -0.1936
     33  CA        10.5710   66.4470   91.9400 C.3    79  SER79       0.2055
     34  C         10.7250   67.6530   91.0240 C.2    79  SER79       0.2643
     35  O         11.1440   68.7260   91.4630 O.2    79  SER79      -0.2714
     36  CB        11.6150   66.5410   93.0500 C.3    79  SER79       0.2130
     37  OG        11.9390   65.2580   93.5470 O.3    79  SER79      -0.2179
     38  N         10.3740   67.4780   89.7580 N.am   80  HIS80      -0.1973
     39  CA        10.5170   68.5330   88.7640 C.3    80  HIS80       0.1656
     40  C         10.0590   69.9290   89.1980 C.2    80  HIS80       0.2291
     41  O         10.8800   70.8470   89.2990 O.2    80  HIS80      -0.2864
     42  CB         9.7990   68.1230   87.4750 C.3    80  HIS80       0.0771
     43  CG        10.3480   68.7690   86.2400 C.ar   80  HIS80       0.0820
     44  ND1        9.8510   68.5090   84.9800 N.ar   80  HIS80      -0.2267
     45  CD2       11.3560   69.6590   86.0690 C.ar   80  HIS80       0.1154
     46  CE1       10.5280   69.2100   84.0880 C.ar   80  HIS80       0.1986
     47  NE2       11.4460   69.9160   84.7220 N.ar   80  HIS80      -0.2212
     48  N         19.5900   71.4140   85.8810 N.3    96  LEU96      -0.1231
     49  CA        19.6440   71.3060   84.4270 C.3    96  LEU96       0.1693
     50  C         18.5990   72.1770   83.7150 C.2    96  LEU96       0.2592
     51  O         18.8370   72.6500   82.6050 O.2    96  LEU96      -0.2718
     52  CB        19.4550   69.8450   84.0050 C.3    96  LEU96       0.0284
     53  CG        19.3100   69.5610   82.5060 C.3    96  LEU96       0.0019
     54  CD1       20.5820   69.9370   81.7790 C.3    96  LEU96       0.0001
     55  CD2       19.0160   68.0740   82.3030 C.3    96  LEU96       0.0001
     56  N         17.4480   72.4000   84.3430 N.am   97  SER97      -0.1952
     57  CA        16.4260   73.2030   83.6960 C.3    97  SER97       0.1924
     58  C         16.7540   74.6880   83.7560 C.2    97  SER97       0.2314
     59  O         16.0940   75.5070   83.1050 O.2    97  SER97      -0.2863
     60  CB        15.0500   72.9280   84.3140 C.3    97  SER97       0.2116
     61  OG        14.9960   73.3680   85.6490 O.3    97  SER97      -0.2180
     62  N         12.7300   72.5400   78.6100 N.3   106  ASP106     -0.1225
     63  CA        12.0600   72.1000   79.8330 C.3   106  ASP106      0.1805
     64  C         10.5390   72.0160   79.6780 C.2   106  ASP106      0.2597
     65  O          9.8850   73.0090   79.3540 O.2   106  ASP106     -0.2718
     66  CB        12.3930   73.0520   80.9850 C.3   106  ASP106      0.1424
     67  CG        12.1960   72.4120   82.3440 C.2   106  ASP106      0.3668
     68  OD1       12.0030   73.1490   83.3420 O.co2 106  ASP106     -0.2456
     69  OD2       12.2500   71.1650   82.4150 O.co2 106  ASP106     -0.2456
     70  N          9.9900   70.8270   79.9150 N.am  107  PHE107     -0.1976
     71  CA         8.5440   70.5810   79.8270 C.3   107  PHE107      0.1639
     72  C          7.9540   70.5080   78.4200 C.2   107  PHE107      0.2290
     73  O          6.7680   70.2390   78.2550 O.2   107  PHE107     -0.2864
     74  CB         7.7670   71.6310   80.6350 C.3   107  PHE107      0.0560
     75  CG         7.8160   71.4100   82.1180 C.ar  107  PHE107     -0.0200
     76  CD1        8.4680   72.3150   82.9510 C.ar  107  PHE107     -0.0042
     77  CD2        7.2010   70.2920   82.6870 C.ar  107  PHE107     -0.0042
     78  CE1        8.5060   72.1110   84.3370 C.ar  107  PHE107     -0.0003
     79  CE2        7.2300   70.0750   84.0660 C.ar  107  PHE107     -0.0003
     80  CZ         7.8830   70.9860   84.8940 C.ar  107  PHE107     -0.0000
     81  N         12.8430   63.2890   72.2530 N.3   135  VAL135     -0.1231
     82  CA        12.8580   63.7750   73.6340 C.3   135  VAL135      0.1692
     83  C         13.7720   63.0190   74.5860 C.2   135  VAL135      0.2592
     84  O         14.4950   63.6380   75.3690 O.2   135  VAL135     -0.2718
     85  CB        11.4340   63.8120   74.2300 C.3   135  VAL135      0.0266
     86  CG1       11.4870   64.1610   75.7090 C.3   135  VAL135      0.0020
     87  CG2       10.6050   64.8460   73.4860 C.3   135  VAL135      0.0020
     88  N         13.7460   61.6930   74.5440 N.am  136  ASP136     -0.1974
     89  CA        14.6240   60.9380   75.4260 C.3   136  ASP136      0.1709
     90  C         16.0850   61.1670   75.0610 C.2   136  ASP136      0.2293
     91  O         16.8960   61.4940   75.9260 O.2   136  ASP136     -0.2864
     92  CB        14.3010   59.4430   75.3820 C.3   136  ASP136      0.1436
     93  CG        13.0200   59.1110   76.1090 C.2   136  ASP136      0.3671
     94  OD1       12.6430   59.8850   77.0160 O.co2 136  ASP136     -0.2456
     95  OD2       12.3970   58.0780   75.7910 O.co2 136  ASP136     -0.2456
     96  N         17.3190   64.4820   76.3500 N.3   139  TRP139     -0.1241
     97  CA        17.6210   64.5220   77.7740 C.3   139  TRP139      0.1605
     98  C         18.7970   63.6610   78.2070 C.2   139  TRP139      0.2264
     99  O         19.4790   63.9970   79.1750 O.2   139  TRP139     -0.2867
    100  CB        16.3600   64.2070   78.5930 C.3   139  TRP139      0.0550
    101  CG        15.3400   65.3160   78.4830 C.ar  139  TRP139      0.0003
    102  CD1       14.1230   65.2610   77.8570 C.ar  139  TRP139      0.0946
    103  CD2       15.4930   66.6660   78.9410 C.ar  139  TRP139      0.0152
    104  NE1       13.5140   66.4920   77.8930 N.ar  139  TRP139     -0.2442
    105  CE2       14.3320   67.3740   78.5500 C.ar  139  TRP139      0.0810
    106  CE3       16.4990   67.3470   79.6430 C.ar  139  TRP139      0.0012
    107  CZ2       14.1480   68.7350   78.8360 C.ar  139  TRP139      0.0191
    108  CZ3       16.3190   68.7030   79.9300 C.ar  139  TRP139      0.0001
    109  CH2       15.1480   69.3810   79.5240 C.ar  139  TRP139      0.0015
    110  N         21.7030   65.5010   79.9720 N.3   143  SER143     -0.1217
    111  CA        22.0190   65.0560   81.3290 C.3   143  SER143      0.1889
    112  C         23.5060   64.7630   81.4690 C.2   143  SER143      0.2288
    113  O         24.1300   65.1000   82.4780 O.2   143  SER143     -0.2866
    114  CB        21.2340   63.7950   81.6700 C.3   143  SER143      0.2089
    115  OG        19.8480   64.0560   81.6440 O.3   143  SER143     -0.2183
    116  N         17.2980   58.5540   84.8310 N.3   172  PHE172     -0.1241
    117  CA        18.3500   59.3520   84.2130 C.3   172  PHE172      0.1605
    118  C         19.4880   59.6160   85.1850 C.2   172  PHE172      0.2264
    119  O         20.6520   59.6160   84.7930 O.2   172  PHE172     -0.2867
    120  CB        17.7940   60.6830   83.7000 C.3   172  PHE172      0.0534
    121  CG        17.0950   60.5740   82.3790 C.ar  172  PHE172     -0.0203
    122  CD1       15.9490   59.8030   82.2420 C.ar  172  PHE172     -0.0042
    123  CD2       17.5960   61.2260   81.2600 C.ar  172  PHE172     -0.0042
    124  CE1       15.3130   59.6820   81.0090 C.ar  172  PHE172     -0.0003
    125  CE2       16.9630   61.1100   80.0230 C.ar  172  PHE172     -0.0003
    126  CZ        15.8220   60.3370   79.8990 C.ar  172  PHE172     -0.0000
    127  N         23.7770   60.1770   84.7700 N.3   177  GLU177     -0.1245
    128  CA        24.4090   61.2480   85.4980 C.3   177  GLU177      0.1567
    129  C         25.4280   60.7600   86.5070 C.2   177  GLU177      0.2260
    130  O         26.5490   61.2620   86.5420 O.2   177  GLU177     -0.2867
    131  CB        23.3310   62.1040   86.1480 C.3   177  GLU177      0.0388
    132  CG        22.2750   62.5390   85.1400 C.3   177  GLU177      0.1160
    133  CD        21.3020   63.5370   85.7090 C.2   177  GLU177      0.3649
    134  OE1       20.6850   63.2290   86.7470 O.co2 177  GLU177     -0.2457
    135  OE2       21.1560   64.6300   85.1190 O.co2 177  GLU177     -0.2457
@<TRIPOS>BOND
     1    81    82    1
     2    87    85    1
     3    82    85    1
     4    82    83    1
     5    85    86    1
     6    88    83   am
     7    88    89    1
     8    83    84    2
     9    90    89    1
    10    90    91    2
    11    92    89    1
    12    92    93    1
    13    95    93   ar
    14    93    94   ar
    15    96    97    1
    16    97    98    1
    17    97   100    1
    18   102   104   ar
    19   102   101   ar
    20   104   105   ar
    21    98    99    2
    22    73    72    2
    23    72    71    1
    24   101   100    1
    25   101   103   ar
    26   105   107   ar
    27   105   103   ar
    28    62    63    1
    29   107   109   ar
    30   103   106   ar
    31    65    64    2
    32   109   108   ar
    33   106   108   ar
    34    64    63    1
    35    64    70   am
    36    71    70    1
    37    71    74    1
    38    63    66    1
    39   126   125   ar
    40   126   124   ar
    41   110   111    1
    42   125   123   ar
    43    74    75    1
    44    66    67    1
    45   124   122   ar
    46   123   121   ar
    47   111   112    1
    48   111   114    1
    49   112   113    2
    50   115   114    1
    51    54    53    1
    52    75    77   ar
    53    75    76   ar
    54   122   121   ar
    55    55    53    1
    56    67    69   ar
    57    67    68   ar
    58   121   120    1
    59    53    52    1
    60    51    50    2
    61    77    79   ar
    62    76    78   ar
    63    59    58    2
    64    57    58    1
    65    57    60    1
    66    57    56    1
    67   120   117    1
    68    50    56   am
    69    50    49    1
    70    52    49    1
    71    79    80   ar
    72    46    47   ar
    73    46    44   ar
    74   117   116    1
    75   117   118    1
    76    60    61    1
    77    78    80   ar
    78    49    48    1
    79    47    45   ar
    80   127   128    1
    81   119   118    2
    82    44    43   ar
    83   135   133   ar
    84   132   133    1
    85   132   131    1
    86   128   131    1
    87   128   129    1
    88   133   134   ar
    89    45    43   ar
    90    43    42    1
    91   129   130    2
    92    12    14   ar
    93    12    10   ar
    94    14    13   ar
    95    42    39    1
    96    10     9   ar
    97    10     8   ar
    98    13    11   ar
    99    23    21   ar
   100     9     7   ar
   101    22    21   ar
   102    21    20    1
   103    39    40    1
   104    39    38    1
   105     8    11   ar
   106     8     6   ar
   107    40    41    2
   108     7     6   ar
   109     4     3    2
   110    30    29    2
   111    38    34   am
   112     6     5    1
   113    20    19    1
   114    24    25    1
   115    24    17   am
   116     3    15   am
   117     3     2    1
   118    16    19    1
   119    16    15    1
   120    16    17    1
   121     1     2    1
   122    25    26    1
   123    25    28    1
   124    29    31   am
   125    29    28    1
   126    34    35    2
   127    34    33    1
   128     2     5    1
   129    17    18    2
   130    32    26   am
   131    32    33    1
   132    26    27    2
   133    33    36    1
   134    36    37    1
