@<TRIPOS>MOLECULE
tmp/1ishB01.pdb
 202 205 0 0 0
SMALL
GASTEIGER

@<TRIPOS>ATOM
      1  N         -4.3100   33.5400   93.3890 N.3    74  LEU74      -0.1231
      2  CA        -3.3250   33.8800   94.4010 C.3    74  LEU74       0.1693
      3  C         -2.5990   35.1540   93.9890 C.2    74  LEU74       0.2592
      4  O         -1.8320   35.1550   93.0310 O.2    74  LEU74      -0.2718
      5  CB        -2.3250   32.7300   94.5700 C.3    74  LEU74       0.0284
      6  CG        -1.0840   32.9990   95.4300 C.3    74  LEU74       0.0019
      7  CD1       -1.4900   33.5430   96.8030 C.3    74  LEU74       0.0001
      8  CD2       -0.2780   31.7090   95.5690 C.3    74  LEU74       0.0001
      9  N         -2.8690   36.2400   94.7070 N.am   75  PHE75      -0.1962
     10  CA        -2.2360   37.5250   94.4370 C.3    75  PHE75       0.1771
     11  C         -1.0300   37.6360   95.3650 C.2    75  PHE75       0.2620
     12  O         -0.9200   36.8690   96.3230 O.2    75  PHE75      -0.2715
     13  CB        -3.2300   38.6620   94.6950 C.3    75  PHE75       0.0574
     14  CG        -4.4100   38.6590   93.7570 C.ar   75  PHE75      -0.0200
     15  CD1       -5.4600   37.7590   93.9350 C.ar   75  PHE75      -0.0042
     16  CD2       -4.4590   39.5370   92.6800 C.ar   75  PHE75      -0.0042
     17  CE1       -6.5430   37.7340   93.0490 C.ar   75  PHE75      -0.0003
     18  CE2       -5.5310   39.5250   91.7880 C.ar   75  PHE75      -0.0003
     19  CZ        -6.5790   38.6200   91.9710 C.ar   75  PHE75      -0.0000
     20  N         -0.1260   38.5740   95.0980 N.am   76  TRP76      -0.1960
     21  CA         1.0630   38.6980   95.9350 C.3    76  TRP76       0.1771
     22  C          1.8720   39.9590   95.6940 C.2    76  TRP76       0.2620
     23  O          1.5930   40.7240   94.7900 O.2    76  TRP76      -0.2715
     24  CB         1.9920   37.5120   95.6960 C.3    76  TRP76       0.0590
     25  CG         2.3770   37.3720   94.2500 C.ar   76  TRP76       0.0006
     26  CD1        1.6980   36.6790   93.2830 C.ar   76  TRP76       0.0946
     27  CD2        3.5200   37.9510   93.6010 C.ar   76  TRP76       0.0152
     28  NE1        2.3500   36.7880   92.0770 N.ar   76  TRP76      -0.2442
     29  CE2        3.4690   37.5630   92.2400 C.ar   76  TRP76       0.0810
     30  CE3        4.5810   38.7620   94.0350 C.ar   76  TRP76       0.0012
     31  CZ2        4.4400   37.9570   91.3080 C.ar   76  TRP76       0.0191
     32  CZ3        5.5480   39.1560   93.1110 C.ar   76  TRP76       0.0001
     33  CH2        5.4700   38.7520   91.7600 C.ar   76  TRP76       0.0015
     34  N          2.8820   40.1590   96.5290 N.am   77  GLU77      -0.1963
     35  CA         3.7970   41.2810   96.4040 C.3    77  GLU77       0.1733
     36  C          5.0870   40.8430   97.0940 C.2    77  GLU77       0.2616
     37  O          5.0440   40.1520   98.1170 O.2    77  GLU77      -0.2715
     38  CB         3.2360   42.5440   97.0850 C.3    77  GLU77       0.0429
     39  CG         2.0400   43.1960   96.3750 C.3    77  GLU77       0.1163
     40  CD         2.4260   44.0760   95.1880 C.2    77  GLU77       0.3649
     41  OE1        3.4770   43.8340   94.5590 O.co2  77  GLU77      -0.2457
     42  OE2        1.6580   45.0100   94.8710 O.co2  77  GLU77      -0.2457
     43  N          6.2270   41.2060   96.5080 N.am   78  ASN78      -0.1958
     44  CA         7.5330   40.8950   97.0830 C.3    78  ASN78       0.1819
     45  C          7.7610   39.4500   97.4890 C.2    78  ASN78       0.2622
     46  O          8.2900   39.1850   98.5710 O.2    78  ASN78      -0.2715
     47  CB         7.7760   41.7840   98.3000 C.3    78  ASN78       0.1195
     48  CG         7.5680   43.2440   97.9900 C.2    78  ASN78       0.2630
     49  OD1        8.1520   43.7770   97.0410 O.2    78  ASN78      -0.2716
     50  ND2        6.7300   43.9040   98.7780 N.am   78  ASN78      -0.0877
     51  N          7.3730   38.5160   96.6300 N.am   79  SER79      -0.1936
     52  CA         7.5690   37.0990   96.9190 C.3    79  SER79       0.2055
     53  C          7.3520   36.2650   95.6670 C.2    79  SER79       0.2643
     54  O          6.8630   35.1350   95.7340 O.2    79  SER79      -0.2714
     55  CB         6.6250   36.6390   98.0460 C.3    79  SER79       0.2130
     56  OG         5.3390   37.2150   97.9380 O.3    79  SER79      -0.2179
     57  N          7.7570   36.8260   94.5280 N.am   80  HIS80      -0.1973
     58  CA         7.5900   36.1740   93.2350 C.3    80  HIS80       0.1656
     59  C          8.0450   34.7120   93.1800 C.2    80  HIS80       0.2291
     60  O          7.2740   33.8410   92.7810 O.2    80  HIS80      -0.2864
     61  CB         8.3020   36.9800   92.1440 C.3    80  HIS80       0.0771
     62  CG         7.9500   36.5500   90.7530 C.ar   80  HIS80       0.0820
     63  ND1        8.6280   36.9950   89.6380 N.ar   80  HIS80      -0.2267
     64  CD2        7.0040   35.6930   90.3000 C.ar   80  HIS80       0.1154
     65  CE1        8.1180   36.4240   88.5620 C.ar   80  HIS80       0.1986
     66  NE2        7.1310   35.6320   88.9350 N.ar   80  HIS80      -0.2212
     67  N         -1.0660   34.5870   88.6110 N.3    96  LEU96      -0.1231
     68  CA        -1.0250   35.1070   87.2470 C.3    96  LEU96       0.1693
     69  C          0.0260   34.4300   86.3700 C.2    96  LEU96       0.2592
     70  O         -0.1900   34.2210   85.1700 O.2    96  LEU96      -0.2718
     71  CB        -0.7920   36.6190   87.2620 C.3    96  LEU96       0.0284
     72  CG        -0.8110   37.3350   85.9040 C.3    96  LEU96       0.0019
     73  CD1       -2.0210   36.9280   85.0760 C.3    96  LEU96       0.0001
     74  CD2       -0.8400   38.8140   86.1460 C.3    96  LEU96       0.0001
     75  N          1.1570   34.0760   86.9670 N.am   97  SER97      -0.1952
     76  CA         2.2130   33.4290   86.2100 C.3    97  SER97       0.1924
     77  C          1.8300   31.9960   85.8250 C.2    97  SER97       0.2314
     78  O          2.5140   31.3710   85.0170 O.2    97  SER97      -0.2863
     79  CB         3.5160   33.4410   87.0160 C.3    97  SER97       0.2116
     80  OG         3.3030   32.8590   88.2820 O.3    97  SER97      -0.2180
     81  N          4.9200   35.3550   79.7060 N.3   105  ALA105     -0.1231
     82  CA         5.7830   36.5150   79.9470 C.3   105  ALA105      0.1694
     83  C          6.4900   36.5570   81.2980 C.2   105  ALA105      0.2592
     84  O          7.2840   37.4640   81.5530 O.2   105  ALA105     -0.2718
     85  CB         4.9740   37.8010   79.7600 C.3   105  ALA105      0.0304
     86  N          6.2100   35.5880   82.1600 N.am  106  ASP106     -0.1960
     87  CA         6.8150   35.5610   83.4920 C.3   106  ASP106      0.1840
     88  C          8.3440   35.7230   83.4290 C.2   106  ASP106      0.2622
     89  O          9.0280   34.9340   82.7830 O.2   106  ASP106     -0.2715
     90  CB         6.4390   34.2470   84.1940 C.3   106  ASP106      0.1450
     91  CG         6.6810   34.2900   85.6860 C.2   106  ASP106      0.3671
     92  OD1        6.9160   33.2190   86.2810 O.co2 106  ASP106     -0.2456
     93  OD2        6.6260   35.3910   86.2700 O.co2 106  ASP106     -0.2456
     94  N          8.8610   36.7570   84.0960 N.am  107  PHE107     -0.1960
     95  CA        10.3010   37.0630   84.1460 C.3   107  PHE107      0.1771
     96  C         10.9540   37.6340   82.8850 C.2   107  PHE107      0.2619
     97  O         12.1210   38.0280   82.9310 O.2   107  PHE107     -0.2715
     98  CB        11.1240   35.8310   84.5460 C.3   107  PHE107      0.0574
     99  CG        10.9570   35.4170   85.9670 C.ar  107  PHE107     -0.0200
    100  CD1       10.3430   34.2030   86.2820 C.ar  107  PHE107     -0.0042
    101  CD2       11.4430   36.2190   87.0010 C.ar  107  PHE107     -0.0042
    102  CE1       10.2130   33.7830   87.6130 C.ar  107  PHE107     -0.0003
    103  CE2       11.3220   35.8160   88.3370 C.ar  107  PHE107     -0.0003
    104  CZ        10.7040   34.5890   88.6430 C.ar  107  PHE107     -0.0000
    105  N         10.2350   37.6880   81.7680 N.am  108  LEU108     -0.1963
    106  CA        10.8310   38.1870   80.5280 C.3   108  LEU108      0.1728
    107  C         10.8290   39.7030   80.3790 C.2   108  LEU108      0.2617
    108  O         10.1740   40.4120   81.1270 O.2   108  LEU108     -0.2715
    109  CB        10.1250   37.5460   79.3210 C.3   108  LEU108      0.0311
    110  CG         9.9710   36.0240   79.4250 C.3   108  LEU108      0.0022
    111  CD1        9.3210   35.4800   78.1610 C.3   108  LEU108      0.0001
    112  CD2       11.3320   35.3780   79.6470 C.3   108  LEU108      0.0001
    113  N         11.5680   40.2010   79.3950 N.am  109  SER109     -0.1936
    114  CA        11.6320   41.6340   79.1530 C.3   109  SER109      0.2055
    115  C         11.5730   41.8650   77.6470 C.2   109  SER109      0.2643
    116  O         12.0770   41.0570   76.8730 O.2   109  SER109     -0.2714
    117  CB        12.9260   42.2070   79.7340 C.3   109  SER109      0.2130
    118  OG        12.9010   43.6250   79.7230 O.3   109  SER109     -0.2179
    119  N         10.9620   42.9650   77.2210 N.am  110  TRP110     -0.1973
    120  CA        10.8440   43.2250   75.7920 C.3   110  TRP110      0.1640
    121  C         10.5240   44.6780   75.4630 C.2   110  TRP110      0.2290
    122  O          9.9370   45.3970   76.2680 O.2   110  TRP110     -0.2864
    123  CB         9.7640   42.3120   75.2010 C.3   110  TRP110      0.0576
    124  CG         8.3950   42.5290   75.8060 C.ar  110  TRP110      0.0006
    125  CD1        7.4330   43.3970   75.3700 C.ar  110  TRP110      0.0946
    126  CD2        7.8610   41.8990   76.9820 C.ar  110  TRP110      0.0152
    127  NE1        6.3390   43.3470   76.1990 N.ar  110  TRP110     -0.2442
    128  CE2        6.5750   42.4370   77.1970 C.ar  110  TRP110      0.0810
    129  CE3        8.3460   40.9330   77.8730 C.ar  110  TRP110      0.0012
    130  CZ2        5.7650   42.0440   78.2690 C.ar  110  TRP110      0.0191
    131  CZ3        7.5430   40.5390   78.9400 C.ar  110  TRP110      0.0001
    132  CH2        6.2660   41.0960   79.1280 C.ar  110  TRP110      0.0015
    133  N          6.4180   46.5060   78.7870 N.3   135  VAL135     -0.1245
    134  CA         6.2970   45.5990   79.9230 C.3   135  VAL135      0.1561
    135  C          5.3120   46.0580   80.9990 C.2   135  VAL135      0.2260
    136  O          4.4880   45.2650   81.4580 O.2   135  VAL135     -0.2867
    137  CB         7.6740   45.3370   80.5710 C.3   135  VAL135      0.0252
    138  CG1        7.5030   44.6080   81.9090 C.3   135  VAL135      0.0019
    139  CG2        8.5370   44.5060   79.6180 C.3   135  VAL135      0.0019
    140  N          1.6780   44.0940   81.9570 N.3   139  TRP139     -0.1241
    141  CA         1.2570   43.6430   83.2770 C.3   139  TRP139      0.1605
    142  C          0.0220   44.3510   83.8230 C.2   139  TRP139      0.2264
    143  O         -0.7470   43.7510   84.5710 O.2   139  TRP139     -0.2867
    144  CB         2.4280   43.7310   84.2620 C.3   139  TRP139      0.0550
    145  CG         3.4740   42.7040   83.9540 C.ar  139  TRP139      0.0003
    146  CD1        4.7590   42.9290   83.5250 C.ar  139  TRP139      0.0946
    147  CD2        3.3000   41.2800   83.9620 C.ar  139  TRP139      0.0152
    148  NE1        5.3850   41.7330   83.2640 N.ar  139  TRP139     -0.2442
    149  CE2        4.5150   40.7070   83.5230 C.ar  139  TRP139      0.0810
    150  CE3        2.2360   40.4350   84.2920 C.ar  139  TRP139      0.0012
    151  CZ2        4.6910   39.3230   83.4080 C.ar  139  TRP139      0.0191
    152  CZ3        2.4140   39.0590   84.1780 C.ar  139  TRP139      0.0001
    153  CH2        3.6320   38.5190   83.7400 C.ar  139  TRP139      0.0015
    154  N         -2.9840   42.0830   84.7360 N.3   143  SER143     -0.1217
    155  CA        -3.4520   42.1450   86.1240 C.3   143  SER143      0.1889
    156  C         -4.9480   42.3740   86.1650 C.2   143  SER143      0.2288
    157  O         -5.6710   41.7390   86.9330 O.2   143  SER143     -0.2866
    158  CB        -2.7820   43.3020   86.8760 C.3   143  SER143      0.2089
    159  OG        -1.4310   43.0200   87.1450 O.3   143  SER143     -0.2183
    160  N         -6.7850   39.1820   85.1150 N.3   146  TYR146     -0.1241
    161  CA        -6.6350   38.1740   86.1490 C.3   146  TYR146      0.1605
    162  C         -7.5750   38.4570   87.3220 C.2   146  TYR146      0.2264
    163  O         -8.1810   37.5350   87.8800 O.2   146  TYR146     -0.2867
    164  CB        -5.1850   38.1390   86.6470 C.3   146  TYR146      0.0534
    165  CG        -4.9390   37.0700   87.6890 C.ar  146  TYR146     -0.0201
    166  CD1       -4.8510   35.7240   87.3300 C.ar  146  TYR146     -0.0009
    167  CD2       -4.8460   37.3960   89.0350 C.ar  146  TYR146     -0.0009
    168  CE1       -4.6810   34.7350   88.2840 C.ar  146  TYR146      0.0417
    169  CE2       -4.6740   36.4100   89.9980 C.ar  146  TYR146      0.0417
    170  CZ        -4.5920   35.0820   89.6150 C.ar  146  TYR146      0.1957
    171  OH        -4.4110   34.1110   90.5710 O.3   146  TYR146     -0.2866
    172  N          1.0410   47.0210   91.6720 N.3   172  PHE172     -0.1227
    173  CA         0.0420   46.3280   90.8670 C.3   172  PHE172      0.1736
    174  C         -1.1700   45.8400   91.6440 C.2   172  PHE172      0.2595
    175  O         -2.2940   45.9160   91.1520 O.2   172  PHE172     -0.2718
    176  CB         0.6710   45.1470   90.1220 C.3   172  PHE172      0.0547
    177  CG         1.5000   45.5540   88.9430 C.ar  172  PHE172     -0.0202
    178  CD1        2.8870   45.6290   89.0380 C.ar  172  PHE172     -0.0042
    179  CD2        0.8900   45.8930   87.7380 C.ar  172  PHE172     -0.0042
    180  CE1        3.6590   46.0370   87.9530 C.ar  172  PHE172     -0.0003
    181  CE2        1.6530   46.3030   86.6490 C.ar  172  PHE172     -0.0003
    182  CZ         3.0430   46.3750   86.7580 C.ar  172  PHE172     -0.0000
    183  N         -0.9460   45.3420   92.8530 N.am  173  PHE173     -0.1976
    184  CA        -2.0440   44.8360   93.6610 C.3   173  PHE173      0.1639
    185  C         -3.0160   45.9290   94.1010 C.2   173  PHE173      0.2290
    186  O         -4.2310   45.7790   93.9710 O.2   173  PHE173     -0.2864
    187  CB        -1.4930   44.1110   94.8910 C.3   173  PHE173      0.0560
    188  CG        -2.5500   43.4830   95.7450 C.ar  173  PHE173     -0.0200
    189  CD1       -3.4300   42.5420   95.2100 C.ar  173  PHE173     -0.0042
    190  CD2       -2.6630   43.8170   97.0880 C.ar  173  PHE173     -0.0042
    191  CE1       -4.4070   41.9400   96.0060 C.ar  173  PHE173     -0.0003
    192  CE2       -3.6340   43.2220   97.8900 C.ar  173  PHE173     -0.0003
    193  CZ        -4.5070   42.2830   97.3520 C.ar  173  PHE173     -0.0000
    194  N         -5.3340   45.4980   90.8010 N.3   177  GLU177     -0.1245
    195  CA        -6.0610   44.2810   91.1050 C.3   177  GLU177      0.1567
    196  C         -7.2410   44.4800   92.0350 C.2   177  GLU177      0.2260
    197  O         -8.3680   44.1530   91.6690 O.2   177  GLU177     -0.2867
    198  CB        -5.0710   43.2540   91.6400 C.3   177  GLU177      0.0388
    199  CG        -3.8380   43.2210   90.7450 C.3   177  GLU177      0.1160
    200  CD        -2.9140   42.0760   91.0290 C.2   177  GLU177      0.3649
    201  OE1       -2.5070   41.9140   92.1930 O.co2 177  GLU177     -0.2457
    202  OE2       -2.5870   41.3380   90.0790 O.co2 177  GLU177     -0.2457
@<TRIPOS>BOND
     1   123   120    1
     2   123   124    1
     3   125   124   ar
     4   125   127   ar
     5   121   120    1
     6   121   122    2
     7   120   119    1
     8   124   126   ar
     9   127   128   ar
    10   116   115    2
    11   126   128   ar
    12   126   129   ar
    13   128   130   ar
    14   119   115   am
    15   115   114    1
    16   129   131   ar
    17   111   110    1
    18   130   132   ar
    19   133   134    1
    20   131   132   ar
    21   114   113    1
    22   114   117    1
    23   109   110    1
    24   109   106    1
    25   113   107   am
    26   110   112    1
    27   139   137    1
    28    81    82    1
    29   118   117    1
    30    85    82    1
    31   134   137    1
    32   134   135    1
    33    82    83    1
    34   107   106    1
    35   107   108    2
    36   106   105    1
    37   137   138    1
    38   135   136    2
    39    83    84    2
    40    83    86   am
    41   105    96   am
    42   140   141    1
    43    86    87    1
    44    89    88    2
    45    96    97    2
    46    96    95    1
    47   148   149   ar
    48   148   146   ar
    49   141   142    1
    50   141   144    1
    51   151   149   ar
    52   151   153   ar
    53    88    87    1
    54    88    94   am
    55    87    90    1
    56   149   147   ar
    57   146   145   ar
    58   153   152   ar
    59   142   143    2
    60   145   147   ar
    61   145   144    1
    62   147   150   ar
    63    94    95    1
    64    95    98    1
    65   152   150   ar
    66    90    91    1
    67    98    99    1
    68   154   155    1
    69    78    77    2
    70    73    72    1
    71   160   161    1
    72    70    69    2
    73    91    93   ar
    74    91    92   ar
    75    77    76    1
    76    72    74    1
    77    72    71    1
    78    99   100   ar
    79    99   101   ar
    80   155   156    1
    81   155   158    1
    82   161   164    1
    83   161   162    1
    84   156   157    2
    85    76    75    1
    86    76    79    1
    87   100   102   ar
    88    69    75   am
    89    69    68    1
    90   164   165    1
    91   181   182   ar
    92   181   179   ar
    93   182   180   ar
    94   158   159    1
    95   101   103   ar
    96    79    80    1
    97    68    71    1
    98    68    67    1
    99   162   163    2
   100   166   165   ar
   101   166   168   ar
   102   102   104   ar
   103   165   167   ar
   104   179   177   ar
   105   180   178   ar
   106   168   170   ar
   107   103   104   ar
   108    65    66   ar
   109    65    63   ar
   110    66    64   ar
   111   177   178   ar
   112   177   176    1
   113   167   169   ar
   114   170   169   ar
   115   170   171    1
   116    63    62   ar
   117   202   200   ar
   118   176   173    1
   119    64    62   ar
   120   199   200    1
   121   199   198    1
   122    62    61    1
   123   194   195    1
   124   173   174    1
   125   173   172    1
   126   200   201   ar
   127   195   198    1
   128   195   196    1
   129   175   174    2
   130    31    33   ar
   131    31    29   ar
   132   174   183   am
   133   197   196    2
   134    33    32   ar
   135    18    19   ar
   136    18    16   ar
   137    19    17   ar
   138    28    29   ar
   139    28    26   ar
   140    61    58    1
   141    29    27   ar
   142    16    14   ar
   143    60    59    2
   144   183   184    1
   145     4     3    2
   146    17    15   ar
   147    32    30   ar
   148    59    58    1
   149    58    57    1
   150    26    25   ar
   151     1     2    1
   152    27    30   ar
   153    27    25   ar
   154   184   185    1
   155   184   187    1
   156    14    15   ar
   157    14    13    1
   158   186   185    2
   159     3     2    1
   160     3     9   am
   161    25    24    1
   162     2     5    1
   163    10    13    1
   164    10     9    1
   165    10    11    1
   166    57    53   am
   167    41    40   ar
   168     5     6    1
   169    23    22    2
   170    42    40   ar
   171   187   188    1
   172    20    11   am
   173    20    21    1
   174    40    39    1
   175   189   188   ar
   176   189   191   ar
   177    11    12    2
   178     6     8    1
   179     6     7    1
   180    53    54    2
   181    53    52    1
   182    22    21    1
   183    22    34   am
   184    24    21    1
   185   188   190   ar
   186   191   193   ar
   187    39    38    1
   188    35    34    1
   189    35    38    1
   190    35    36    1
   191    43    44    1
   192    43    36   am
   193    51    52    1
   194    51    45   am
   195    52    55    1
   196    49    48    2
   197    44    45    1
   198    44    47    1
   199   190   192   ar
   200    36    37    2
   201   193   192   ar
   202    45    46    2
   203    56    55    1
   204    48    47    1
   205    48    50   am
