@<TRIPOS>MOLECULE
tmp/1isiB02.pdb
 148 144 0 0 0
SMALL
GASTEIGER

@<TRIPOS>ATOM
      1  N         16.6580   46.4570   81.7320 N.3     4  GLU4       -0.1245
      2  CA        17.3830   45.4790   80.9290 C.3     4  GLU4        0.1567
      3  C         16.8170   45.3670   79.5160 C.2     4  GLU4        0.2260
      4  O         15.6120   45.5090   79.2990 O.2     4  GLU4       -0.2867
      5  CB        17.3580   44.0990   81.5980 C.3     4  GLU4        0.0388
      6  CG        15.9910   43.4290   81.6270 C.3     4  GLU4        0.1160
      7  CD        16.0540   41.9850   82.1100 C.2     4  GLU4        0.3649
      8  OE1       14.9890   41.3250   82.1670 O.co2   4  GLU4       -0.2457
      9  OE2       17.1670   41.5080   82.4310 O.co2   4  GLU4       -0.2457
     10  N          0.0170   38.9880   94.6510 N.3    76  TRP76      -0.1241
     11  CA         1.1930   39.1260   95.4990 C.3    76  TRP76       0.1605
     12  C          1.9840   40.4080   95.2830 C.2    76  TRP76       0.2264
     13  O          1.7570   41.1470   94.3250 O.2    76  TRP76      -0.2867
     14  CB         2.1460   37.9480   95.2580 C.3    76  TRP76       0.0550
     15  CG         2.6180   37.8420   93.8230 C.ar   76  TRP76       0.0003
     16  CD1        1.9800   37.2030   92.7920 C.ar   76  TRP76       0.0946
     17  CD2        3.8300   38.3830   93.2650 C.ar   76  TRP76       0.0152
     18  NE1        2.7210   37.3080   91.6350 N.ar   76  TRP76      -0.2442
     19  CE2        3.8580   38.0260   91.8940 C.ar   76  TRP76       0.0810
     20  CE3        4.8920   39.1350   93.7900 C.ar   76  TRP76       0.0012
     21  CZ2        4.9120   38.3910   91.0410 C.ar   76  TRP76       0.0191
     22  CZ3        5.9440   39.5000   92.9410 C.ar   76  TRP76       0.0001
     23  CH2        5.9430   39.1230   91.5810 C.ar   76  TRP76       0.0015
     24  N          6.2770   41.6110   96.2370 N.3    78  ASN78      -0.1240
     25  CA         7.5760   41.2700   96.8060 C.3    78  ASN78       0.1653
     26  C          7.8440   39.8170   97.1990 C.2    78  ASN78       0.2266
     27  O          8.4780   39.5690   98.2300 O.2    78  ASN78      -0.2867
     28  CB         7.8390   42.1680   98.0260 C.3    78  ASN78       0.1155
     29  CG         7.7000   43.6500   97.7010 C.2    78  ASN78       0.2627
     30  OD1        8.3330   44.1490   96.7780 O.2    78  ASN78      -0.2716
     31  ND2        6.8670   44.3550   98.4590 N.am   78  ASN78      -0.0877
     32  N          7.9760   37.1190   94.3060 N.3    80  HIS80      -0.1226
     33  CA         7.9180   36.4820   92.9950 C.3    80  HIS80       0.1752
     34  C          8.2810   34.9890   92.9840 C.2    80  HIS80       0.2595
     35  O          7.4760   34.1570   92.5690 O.2    80  HIS80      -0.2718
     36  CB         8.8350   37.2350   92.0220 C.3    80  HIS80       0.0759
     37  CG         8.6450   36.8560   90.5830 C.ar   80  HIS80       0.0818
     38  ND1        9.6160   37.0570   89.6250 N.ar   80  HIS80      -0.2268
     39  CD2        7.5850   36.3150   89.9350 C.ar   80  HIS80       0.1154
     40  CE1        9.1640   36.6540   88.4500 C.ar   80  HIS80       0.1986
     41  NE2        7.9330   36.2000   88.6120 N.ar   80  HIS80      -0.2212
     42  N          9.4900   34.6550   93.4270 N.am   81  LEU81      -0.1980
     43  CA         9.9430   33.2680   93.4230 C.3    81  LEU81       0.1596
     44  C          9.1700   32.3500   94.3620 C.2    81  LEU81       0.2287
     45  O          8.9370   31.1870   94.0390 O.2    81  LEU81      -0.2864
     46  CB        11.4330   33.1990   93.7590 C.3    81  LEU81       0.0297
     47  CG        12.3290   33.9380   92.7610 C.3    81  LEU81       0.0022
     48  CD1       13.7930   33.7980   93.1890 C.3    81  LEU81       0.0001
     49  CD2       12.1160   33.3760   91.3560 C.3    81  LEU81       0.0001
     50  N         -0.8850   34.8840   88.1510 N.3    96  LEU96      -0.1231
     51  CA        -0.8190   35.3470   86.7600 C.3    96  LEU96       0.1693
     52  C          0.2860   34.6940   85.9350 C.2    96  LEU96       0.2592
     53  O          0.1310   34.4870   84.7290 O.2    96  LEU96      -0.2718
     54  CB        -0.6820   36.8790   86.7110 C.3    96  LEU96       0.0284
     55  CG        -0.5940   37.5780   85.3460 C.3    96  LEU96       0.0019
     56  CD1       -1.6960   37.0940   84.4070 C.3    96  LEU96       0.0001
     57  CD2       -0.7000   39.0820   85.5510 C.3    96  LEU96       0.0001
     58  N          1.3970   34.3520   86.5770 N.am   97  SER97      -0.1952
     59  CA         2.4940   33.7150   85.8620 C.3    97  SER97       0.1924
     60  C          2.1080   32.3000   85.4290 C.2    97  SER97       0.2314
     61  O          2.8000   31.6960   84.6120 O.2    97  SER97      -0.2863
     62  CB         3.7440   33.6610   86.7400 C.3    97  SER97       0.2116
     63  OG         3.5200   32.8300   87.8570 O.3    97  SER97      -0.2180
     64  N          5.2780   35.7800   79.5010 N.3   105  ALA105     -0.1231
     65  CA         6.1060   36.9490   79.7860 C.3   105  ALA105      0.1694
     66  C          6.9010   36.9170   81.0940 C.2   105  ALA105      0.2592
     67  O          7.8020   37.7350   81.2830 O.2   105  ALA105     -0.2718
     68  CB         5.2400   38.2110   79.7470 C.3   105  ALA105      0.0304
     69  N          6.5820   35.9830   81.9860 N.am  106  ASP106     -0.1960
     70  CA         7.2570   35.9130   83.2900 C.3   106  ASP106      0.1840
     71  C          8.7870   35.9860   83.1880 C.2   106  ASP106      0.2622
     72  O          9.4080   35.1930   82.4770 O.2   106  ASP106     -0.2715
     73  CB         6.8340   34.6290   84.0220 C.3   106  ASP106      0.1450
     74  CG         7.0140   34.7190   85.5370 C.2   106  ASP106      0.3671
     75  OD1        7.1720   33.6520   86.1720 O.co2 106  ASP106     -0.2456
     76  OD2        6.9830   35.8400   86.0990 O.co2 106  ASP106     -0.2456
     77  N          9.3800   36.9480   83.9010 N.am  107  PHE107     -0.1960
     78  CA        10.8350   37.1650   83.9270 C.3   107  PHE107      0.1771
     79  C         11.4130   37.8310   82.6870 C.2   107  PHE107      0.2619
     80  O         12.5690   38.2510   82.7000 O.2   107  PHE107     -0.2715
     81  CB        11.6060   35.8490   84.1150 C.3   107  PHE107      0.0574
     82  CG        11.4510   35.2320   85.4690 C.ar  107  PHE107     -0.0200
     83  CD1       10.5560   34.1890   85.6720 C.ar  107  PHE107     -0.0042
     84  CD2       12.2210   35.6760   86.5410 C.ar  107  PHE107     -0.0042
     85  CE1       10.4280   33.5910   86.9270 C.ar  107  PHE107     -0.0003
     86  CE2       12.1030   35.0850   87.8010 C.ar  107  PHE107     -0.0003
     87  CZ        11.2050   34.0400   87.9930 C.ar  107  PHE107     -0.0000
     88  N         10.6280   37.9260   81.6180 N.am  108  LEU108     -0.1963
     89  CA        11.1300   38.5030   80.3810 C.3   108  LEU108      0.1728
     90  C         11.0990   40.0260   80.2710 C.2   108  LEU108      0.2616
     91  O         10.4240   40.7190   81.0370 O.2   108  LEU108     -0.2715
     92  CB        10.3910   37.8840   79.1900 C.3   108  LEU108      0.0311
     93  CG        10.3000   36.3550   79.1910 C.3   108  LEU108      0.0022
     94  CD1        9.6700   35.8890   77.8780 C.3   108  LEU108      0.0001
     95  CD2       11.6870   35.7450   79.3770 C.3   108  LEU108      0.0001
     96  N         11.8560   40.5360   79.3050 N.am  109  SER109     -0.1950
     97  CA        11.9430   41.9690   79.0520 C.3   109  SER109      0.1924
     98  C         11.9180   42.1630   77.5410 C.2   109  SER109      0.2314
     99  O         12.3890   41.3020   76.7970 O.2   109  SER109     -0.2863
    100  CB        13.2420   42.5250   79.6390 C.3   109  SER109      0.2116
    101  OG        13.2860   43.9310   79.5160 O.3   109  SER109     -0.2180
    102  N          6.8950   46.7630   78.5200 N.3   135  VAL135     -0.1245
    103  CA         6.7400   45.9010   79.6840 C.3   135  VAL135      0.1561
    104  C          5.7180   46.3960   80.7080 C.2   135  VAL135      0.2260
    105  O          4.8200   45.6510   81.0970 O.2   135  VAL135     -0.2867
    106  CB         8.1030   45.6770   80.3720 C.3   135  VAL135      0.0252
    107  CG1        7.9260   44.8750   81.6670 C.3   135  VAL135      0.0019
    108  CG2        9.0430   44.9390   79.4090 C.3   135  VAL135      0.0019
    109  N          2.0540   44.4400   81.7250 N.3   139  TRP139     -0.1241
    110  CA         1.6220   43.9720   83.0340 C.3   139  TRP139      0.1605
    111  C          0.3790   44.6870   83.5600 C.2   139  TRP139      0.2264
    112  O         -0.3910   44.1180   84.3310 O.2   139  TRP139     -0.2867
    113  CB         2.7940   44.0380   84.0230 C.3   139  TRP139      0.0550
    114  CG         3.8100   42.9610   83.7300 C.ar  139  TRP139      0.0003
    115  CD1        5.0790   43.1270   83.2550 C.ar  139  TRP139      0.0946
    116  CD2        3.5960   41.5440   83.8120 C.ar  139  TRP139      0.0152
    117  NE1        5.6700   41.9000   83.0310 N.ar  139  TRP139     -0.2442
    118  CE2        4.7810   40.9130   83.3650 C.ar  139  TRP139      0.0810
    119  CE3        2.5180   40.7470   84.2200 C.ar  139  TRP139      0.0012
    120  CZ2        4.9150   39.5190   83.3130 C.ar  139  TRP139      0.0191
    121  CZ3        2.6520   39.3620   84.1690 C.ar  139  TRP139      0.0001
    122  CH2        3.8430   38.7630   83.7180 C.ar  139  TRP139      0.0015
    123  N         -2.6520   42.4050   84.3800 N.3   143  SER143     -0.1217
    124  CA        -3.1490   42.3740   85.7500 C.3   143  SER143      0.1889
    125  C         -4.6310   42.7580   85.7960 C.2   143  SER143      0.2288
    126  O         -5.3830   42.2610   86.6350 O.2   143  SER143     -0.2866
    127  CB        -2.3010   43.2810   86.6660 C.3   143  SER143      0.2089
    128  OG        -2.3340   44.6330   86.2650 O.3   143  SER143     -0.2183
    129  N          1.1940   47.3850   91.3490 N.3   172  PHE172     -0.1241
    130  CA         0.1800   46.7950   90.4860 C.3   172  PHE172      0.1605
    131  C         -1.0300   46.2950   91.2600 C.2   172  PHE172      0.2264
    132  O         -2.1650   46.4430   90.8090 O.2   172  PHE172     -0.2867
    133  CB         0.7660   45.6550   89.6490 C.3   172  PHE172      0.0534
    134  CG         1.5780   46.1210   88.4790 C.ar  172  PHE172     -0.0203
    135  CD1        2.9610   46.1630   88.5470 C.ar  172  PHE172     -0.0042
    136  CD2        0.9590   46.5160   87.3010 C.ar  172  PHE172     -0.0042
    137  CE1        3.7280   46.5850   87.4640 C.ar  172  PHE172     -0.0003
    138  CE2        1.7150   46.9440   86.2090 C.ar  172  PHE172     -0.0003
    139  CZ         3.1050   46.9770   86.2940 C.ar  172  PHE172     -0.0000
    140  N         -5.0310   45.8860   90.2200 N.3   177  GLU177     -0.1245
    141  CA        -5.7560   44.6600   90.5060 C.3   177  GLU177      0.1567
    142  C         -6.9220   44.8710   91.4740 C.2   177  GLU177      0.2260
    143  O         -8.0520   44.4950   91.1680 O.2   177  GLU177     -0.2867
    144  CB        -4.7710   43.5990   91.0030 C.3   177  GLU177      0.0388
    145  CG        -3.6530   43.3470   89.9720 C.3   177  GLU177      0.1160
    146  CD        -2.6840   42.2590   90.3780 C.2   177  GLU177      0.3649
    147  OE1       -2.1330   42.3330   91.4950 O.co2 177  GLU177     -0.2457
    148  OE2       -2.4650   41.3300   89.5720 O.co2 177  GLU177     -0.2457
@<TRIPOS>BOND
     1    99    98    2
     2    98    97    1
     3    94    93    1
     4   102   103    1
     5    97    96    1
     6    97   100    1
     7    92    93    1
     8    92    89    1
     9    93    95    1
    10     4     3    2
    11    96    90   am
    12   108   106    1
    13    64    65    1
    14     3     2    1
    15   101   100    1
    16   103   106    1
    17   103   104    1
    18    68    65    1
    19    65    66    1
    20    90    89    1
    21    90    91    2
    22   106   107    1
    23    89    88    1
    24   104   105    2
    25     2     5    1
    26     2     1    1
    27    66    67    2
    28    66    69   am
    29     5     6    1
    30    88    79   am
    31     6     7    1
    32   109   110    1
    33    69    70    1
    34     7     8   ar
    35     7     9   ar
    36    72    71    2
    37    79    80    2
    38    79    78    1
    39   117   115   ar
    40   117   118   ar
    41   110   111    1
    42   110   113    1
    43    71    70    1
    44    71    77   am
    45   115   114   ar
    46    70    73    1
    47   120   118   ar
    48   120   122   ar
    49   118   116   ar
    50   111   112    2
    51   122   121   ar
    52   114   116   ar
    53   114   113    1
    54   116   119   ar
    55    77    78    1
    56    78    81    1
    57    73    74    1
    58    81    82    1
    59   121   119   ar
    60   123   124    1
    61    56    55    1
    62    61    60    2
    63    53    52    2
    64    55    57    1
    65    55    54    1
    66    60    59    1
    67    82    83   ar
    68    82    84   ar
    69    74    76   ar
    70    74    75   ar
    71    83    85   ar
    72   124   125    1
    73   124   127    1
    74   125   126    2
    75    59    58    1
    76    59    62    1
    77    52    58   am
    78    52    51    1
    79   138   139   ar
    80   138   136   ar
    81   128   127    1
    82   139   137   ar
    83    84    86   ar
    84    54    51    1
    85    62    63    1
    86    51    50    1
    87    85    87   ar
    88   136   134   ar
    89   137   135   ar
    90    86    87   ar
    91    40    41   ar
    92    40    38   ar
    93   134   135   ar
    94   134   133    1
    95    41    39   ar
    96   148   146   ar
    97    38    37   ar
    98   133   130    1
    99    39    37   ar
   100   145   146    1
   101   145   144    1
   102   140   141    1
   103   146   147   ar
   104   130   131    1
   105   130   129    1
   106   141   144    1
   107   141   142    1
   108    37    36    1
   109   132   131    2
   110    21    23   ar
   111    21    19   ar
   112   143   142    2
   113    49    47    1
   114    23    22   ar
   115    18    19   ar
   116    18    16   ar
   117    19    17   ar
   118    36    33    1
   119    35    34    2
   120    47    48    1
   121    47    46    1
   122    16    15   ar
   123    22    20   ar
   124    34    33    1
   125    34    42   am
   126    33    32    1
   127    17    20   ar
   128    17    15   ar
   129    43    42    1
   130    43    46    1
   131    43    44    1
   132    15    14    1
   133    45    44    2
   134    13    12    2
   135    10    11    1
   136    14    11    1
   137    12    11    1
   138    24    25    1
   139    30    29    2
   140    25    26    1
   141    25    28    1
   142    26    27    2
   143    29    28    1
   144    29    31   am
