@<TRIPOS>MOLECULE
tmp/1isjA01.pdb
 160 161 0 0 0
SMALL
GASTEIGER

@<TRIPOS>ATOM
      1  N         22.3390   70.7610  155.7600 N.3    74  LEU74      -0.1231
      2  CA        21.2580   70.1120  156.4810 C.3    74  LEU74       0.1693
      3  C         20.6060   69.0460  155.6070 C.2    74  LEU74       0.2592
      4  O         19.9350   69.3750  154.6310 O.2    74  LEU74      -0.2718
      5  CB        20.2160   71.1580  156.8840 C.3    74  LEU74       0.0284
      6  CG        18.8770   70.6640  157.4360 C.3    74  LEU74       0.0019
      7  CD1       19.0950   69.8920  158.7290 C.3    74  LEU74       0.0001
      8  CD2       17.9630   71.8720  157.6680 C.3    74  LEU74       0.0001
      9  N         20.8060   67.7770  155.9560 N.am   75  PHE75      -0.1962
     10  CA        20.2180   66.6690  155.1990 C.3    75  PHE75       0.1771
     11  C         18.9240   66.2820  155.8830 C.2    75  PHE75       0.2620
     12  O         18.6670   66.7230  157.0050 O.2    75  PHE75      -0.2715
     13  CB        21.1710   65.4630  155.1580 C.3    75  PHE75       0.0574
     14  CG        22.4960   65.7630  154.5110 C.ar   75  PHE75      -0.0200
     15  CD1       23.4520   66.5280  155.1740 C.ar   75  PHE75      -0.0042
     16  CD2       22.7670   65.3220  153.2140 C.ar   75  PHE75      -0.0042
     17  CE1       24.6640   66.8550  154.5510 C.ar   75  PHE75      -0.0003
     18  CE2       23.9740   65.6410  152.5810 C.ar   75  PHE75      -0.0003
     19  CZ        24.9240   66.4090  153.2490 C.ar   75  PHE75      -0.0000
     20  N         18.1100   65.4570  155.2310 N.am   76  TRP76      -0.1960
     21  CA        16.8420   65.0730  155.8320 C.3    76  TRP76       0.1771
     22  C         16.1180   63.9440  155.1290 C.2    76  TRP76       0.2620
     23  O         16.5280   63.4940  154.0650 O.2    76  TRP76      -0.2715
     24  CB        15.9070   66.2800  155.8770 C.3    76  TRP76       0.0590
     25  CG        15.7270   66.9290  154.5270 C.ar   76  TRP76       0.0006
     26  CD1       16.4930   67.9250  153.9850 C.ar   76  TRP76       0.0946
     27  CD2       14.7370   66.6080  153.5470 C.ar   76  TRP76       0.0152
     28  NE1       16.0380   68.2430  152.7320 N.ar   76  TRP76      -0.2442
     29  CE2       14.9600   67.4510  152.4370 C.ar   76  TRP76       0.0810
     30  CE3       13.6820   65.6880  153.4980 C.ar   76  TRP76       0.0012
     31  CZ2       14.1640   67.4070  151.2900 C.ar   76  TRP76       0.0191
     32  CZ3       12.8880   65.6380  152.3520 C.ar   76  TRP76       0.0001
     33  CH2       13.1340   66.4950  151.2650 C.ar   76  TRP76       0.0015
     34  N         15.0300   63.4990  155.7560 N.am   77  GLU77      -0.1963
     35  CA        14.1700   62.4440  155.2330 C.3    77  GLU77       0.1733
     36  C         12.7890   62.6050  155.8640 C.2    77  GLU77       0.2616
     37  O         12.6710   62.7410  157.0830 O.2    77  GLU77      -0.2715
     38  CB        14.7250   61.0540  155.5900 C.3    77  GLU77       0.0429
     39  CG        15.9420   60.6310  154.8030 C.3    77  GLU77       0.1163
     40  CD        15.6020   60.2180  153.3820 C.2    77  GLU77       0.3649
     41  OE1       14.4780   60.5120  152.9220 O.co2  77  GLU77      -0.2457
     42  OE2       16.4620   59.6050  152.7170 O.co2  77  GLU77      -0.2457
     43  N         11.7480   62.6070  155.0380 N.am   78  ASN78      -0.1972
     44  CA        10.3750   62.7130  155.5370 C.3    78  ASN78       0.1688
     45  C         10.0490   63.9700  156.3460 C.2    78  ASN78       0.2292
     46  O          9.3110   63.9060  157.3260 O.2    78  ASN78      -0.2864
     47  CB        10.0340   61.4740  156.3760 C.3    78  ASN78       0.1181
     48  CG        10.2190   60.1800  155.6050 C.2    78  ASN78       0.2629
     49  OD1        9.6990   60.0310  154.5050 O.2    78  ASN78      -0.2716
     50  ND2       10.9630   59.2350  156.1830 N.am   78  ASN78      -0.0877
     51  N         10.2940   67.4000  154.4260 N.3    80  HIS80      -0.1241
     52  CA        10.5650   68.4190  153.4160 C.3    80  HIS80       0.1621
     53  C         10.1340   69.8390  153.8050 C.2    80  HIS80       0.2264
     54  O         10.9690   70.7420  153.8660 O.2    80  HIS80      -0.2867
     55  CB         9.9180   68.0110  152.0860 C.3    80  HIS80       0.0745
     56  CG        10.4890   68.7150  150.8910 C.ar   80  HIS80       0.0817
     57  ND1       10.1280   68.3980  149.5980 N.ar   80  HIS80      -0.2268
     58  CD2       11.4080   69.7050  150.7910 C.ar   80  HIS80       0.1154
     59  CE1       10.8010   69.1610  148.7550 C.ar   80  HIS80       0.1986
     60  NE2       11.5850   69.9620  149.4540 N.ar   80  HIS80      -0.2212
     61  N         19.7460   71.2950  150.5570 N.3    96  LEU96      -0.1231
     62  CA        19.8180   71.2160  149.1000 C.3    96  LEU96       0.1693
     63  C         18.8110   72.1480  148.4060 C.2    96  LEU96       0.2592
     64  O         19.1400   72.8020  147.4170 O.2    96  LEU96      -0.2718
     65  CB        19.6010   69.7650  148.6610 C.3    96  LEU96       0.0284
     66  CG        19.5200   69.4610  147.1630 C.3    96  LEU96       0.0019
     67  CD1       20.6840   70.1000  146.4270 C.3    96  LEU96       0.0001
     68  CD2       19.5150   67.9410  146.9670 C.3    96  LEU96       0.0001
     69  N         17.5960   72.2250  148.9370 N.am   97  SER97      -0.1952
     70  CA        16.5730   73.0830  148.3570 C.3    97  SER97       0.1924
     71  C         16.9560   74.5610  148.4580 C.2    97  SER97       0.2314
     72  O         16.3400   75.4150  147.8150 O.2    97  SER97      -0.2863
     73  CB        15.2320   72.8550  149.0560 C.3    97  SER97       0.2116
     74  OG        15.2950   73.2970  150.3990 O.3    97  SER97      -0.2180
     75  N         13.1180   72.4490  143.3650 N.3   106  ASP106     -0.1225
     76  CA        12.3910   72.0840  144.5870 C.3   106  ASP106      0.1805
     77  C         10.8760   71.9570  144.3760 C.2   106  ASP106      0.2597
     78  O         10.2130   72.9110  143.9590 O.2   106  ASP106     -0.2718
     79  CB        12.6730   73.1130  145.6990 C.3   106  ASP106      0.1424
     80  CG        12.3660   72.5720  147.1090 C.2   106  ASP106      0.3668
     81  OD1       12.0870   73.3740  148.0340 O.co2 106  ASP106     -0.2456
     82  OD2       12.4200   71.3440  147.3030 O.co2 106  ASP106     -0.2456
     83  N         10.3360   70.7730  144.6670 N.am  107  PHE107     -0.1976
     84  CA         8.8970   70.4970  144.5390 C.3   107  PHE107      0.1639
     85  C          8.3540   70.4420  143.1230 C.2   107  PHE107      0.2290
     86  O          7.1620   70.1920  142.9250 O.2   107  PHE107     -0.2864
     87  CB         8.0650   71.5200  145.3220 C.3   107  PHE107      0.0560
     88  CG         8.0040   71.2510  146.7900 C.ar  107  PHE107     -0.0200
     89  CD1        8.4940   72.1810  147.7010 C.ar  107  PHE107     -0.0042
     90  CD2        7.4640   70.0600  147.2680 C.ar  107  PHE107     -0.0042
     91  CE1        8.4490   71.9300  149.0720 C.ar  107  PHE107     -0.0003
     92  CE2        7.4130   69.7970  148.6330 C.ar  107  PHE107     -0.0003
     93  CZ         7.9080   70.7370  149.5390 C.ar  107  PHE107     -0.0000
     94  N         17.6990   64.4020  141.1100 N.3   139  TRP139     -0.1241
     95  CA        18.0010   64.4530  142.5290 C.3   139  TRP139      0.1605
     96  C         19.1910   63.6100  142.9480 C.2   139  TRP139      0.2264
     97  O         19.8760   63.9500  143.9150 O.2   139  TRP139     -0.2867
     98  CB        16.7460   64.1210  143.3320 C.3   139  TRP139      0.0550
     99  CG        15.7150   65.2130  143.1790 C.ar  139  TRP139      0.0003
    100  CD1       14.5000   65.1210  142.5630 C.ar  139  TRP139      0.0946
    101  CD2       15.8430   66.5720  143.6130 C.ar  139  TRP139      0.0152
    102  NE1       13.8630   66.3400  142.5850 N.ar  139  TRP139     -0.2442
    103  CE2       14.6660   67.2480  143.2240 C.ar  139  TRP139      0.0810
    104  CE3       16.8400   67.2850  144.2960 C.ar  139  TRP139      0.0012
    105  CZ2       14.4570   68.6050  143.4940 C.ar  139  TRP139      0.0191
    106  CZ3       16.6340   68.6340  144.5650 C.ar  139  TRP139      0.0001
    107  CH2       15.4480   69.2800  144.1630 C.ar  139  TRP139      0.0015
    108  N         21.9540   65.5680  144.7780 N.3   143  SER143     -0.1217
    109  CA        22.2770   65.1820  146.1480 C.3   143  SER143      0.1889
    110  C         23.7320   64.7220  146.2340 C.2   143  SER143      0.2288
    111  O         24.4000   64.9460  147.2440 O.2   143  SER143     -0.2866
    112  CB        21.3190   64.0920  146.6610 C.3   143  SER143      0.2089
    113  OG        21.4160   62.9140  145.8940 O.3   143  SER143     -0.2183
    114  N         25.7720   67.9100  146.4180 N.3   146  TYR146     -0.1241
    115  CA        25.5530   68.5620  147.7050 C.3   146  TYR146      0.1605
    116  C         26.3670   67.8780  148.8170 C.2   146  TYR146      0.2264
    117  O         26.9550   68.5520  149.6660 O.2   146  TYR146     -0.2867
    118  CB        24.0690   68.5260  148.0430 C.3   146  TYR146      0.0534
    119  CG        23.7080   69.2080  149.3420 C.ar  146  TYR146     -0.0201
    120  CD1       23.5770   70.5960  149.4150 C.ar  146  TYR146     -0.0009
    121  CD2       23.4800   68.4600  150.4950 C.ar  146  TYR146     -0.0009
    122  CE1       23.2260   71.2190  150.6030 C.ar  146  TYR146      0.0417
    123  CE2       23.1260   69.0740  151.6900 C.ar  146  TYR146      0.0417
    124  CZ        22.9990   70.4490  151.7410 C.ar  146  TYR146      0.1957
    125  OH        22.6400   71.0460  152.9290 O.3   146  TYR146     -0.2866
    126  N         16.5990   55.3140  150.8610 N.3   171  GLY171     -0.1210
    127  CA        16.3600   56.6830  150.4410 C.3   171  GLY171      0.1956
    128  C         17.5740   57.3640  149.8260 C.2   171  GLY171      0.2612
    129  O         18.6590   56.7790  149.7540 O.2   171  GLY171     -0.2717
    130  N         17.3910   58.6060  149.3790 N.am  172  PHE172     -0.1962
    131  CA        18.4770   59.3630  148.7770 C.3   172  PHE172      0.1771
    132  C         19.5870   59.5890  149.7870 C.2   172  PHE172      0.2619
    133  O         20.7620   59.6090  149.4370 O.2   172  PHE172     -0.2715
    134  CB        17.9870   60.7240  148.2680 C.3   172  PHE172      0.0574
    135  CG        17.2220   60.6550  146.9760 C.ar  172  PHE172     -0.0200
    136  CD1       15.8520   60.4070  146.9700 C.ar  172  PHE172     -0.0042
    137  CD2       17.8740   60.8320  145.7610 C.ar  172  PHE172     -0.0042
    138  CE1       15.1420   60.3390  145.7700 C.ar  172  PHE172     -0.0003
    139  CE2       17.1760   60.7640  144.5580 C.ar  172  PHE172     -0.0003
    140  CZ        15.8080   60.5170  144.5610 C.ar  172  PHE172     -0.0000
    141  N         19.2120   59.7670  151.0440 N.am  173  PHE173     -0.1974
    142  CA        20.1970   60.0010  152.0870 C.3   173  PHE173      0.1639
    143  C         21.1150   58.7930  152.2730 C.2   173  PHE173      0.2290
    144  O         22.3380   58.9310  152.3680 O.2   173  PHE173     -0.2864
    145  CB        19.4930   60.3270  153.4020 C.3   173  PHE173      0.0560
    146  CG        20.4320   60.6410  154.5250 C.ar  173  PHE173     -0.0200
    147  CD1       21.4450   61.5840  154.3580 C.ar  173  PHE173     -0.0042
    148  CD2       20.2930   60.0150  155.7600 C.ar  173  PHE173     -0.0042
    149  CE1       22.3060   61.9020  155.4090 C.ar  173  PHE173     -0.0003
    150  CE2       21.1460   60.3260  156.8170 C.ar  173  PHE173     -0.0003
    151  CZ        22.1530   61.2690  156.6410 C.ar  173  PHE173     -0.0000
    152  N         23.8390   60.1890  149.5020 N.3   177  GLU177     -0.1245
    153  CA        24.4970   61.2360  150.2650 C.3   177  GLU177      0.1567
    154  C         25.5210   60.7250  151.2700 C.2   177  GLU177      0.2260
    155  O         26.6590   61.1930  151.2880 O.2   177  GLU177     -0.2867
    156  CB        23.4410   62.0910  150.9460 C.3   177  GLU177      0.0388
    157  CG        22.3420   62.4790  149.9800 C.3   177  GLU177      0.1160
    158  CD        21.3200   63.4000  150.5900 C.2   177  GLU177      0.3649
    159  OE1       20.7570   63.0490  151.6470 O.co2 177  GLU177     -0.2457
    160  OE2       21.0800   64.4770  150.0060 O.co2 177  GLU177     -0.2457
@<TRIPOS>BOND
     1    94    95    1
     2    95    96    1
     3    95    98    1
     4   100   102   ar
     5   100    99   ar
     6   102   103   ar
     7    86    85    2
     8    96    97    2
     9    85    84    1
    10    99    98    1
    11    99   101   ar
    12   103   105   ar
    13   103   101   ar
    14    75    76    1
    15   105   107   ar
    16   101   104   ar
    17    78    77    2
    18   107   106   ar
    19   104   106   ar
    20    77    76    1
    21    77    83   am
    22    84    83    1
    23    84    87    1
    24   139   140   ar
    25   139   137   ar
    26   140   138   ar
    27    76    79    1
    28   108   109    1
    29    87    88    1
    30    79    80    1
    31   137   135   ar
    32   138   136   ar
    33   113   112    1
    34   109   110    1
    35   109   112    1
    36   110   111    2
    37   114   115    1
    38    67    66    1
    39    88    90   ar
    40    88    89   ar
    41    68    66    1
    42   136   135   ar
    43   135   134    1
    44    80    82   ar
    45    80    81   ar
    46    66    65    1
    47    90    92   ar
    48    64    63    2
    49    89    91   ar
    50   115   118    1
    51   115   116    1
    52    72    71    2
    53   118   119    1
    54   134   131    1
    55    70    71    1
    56    70    69    1
    57    70    73    1
    58    63    69   am
    59    63    62    1
    60    92    93   ar
    61    65    62    1
    62    59    60   ar
    63    59    57   ar
    64   131   130    1
    65   131   132    1
    66   116   117    2
    67    73    74    1
    68    91    93   ar
    69    62    61    1
    70   119   120   ar
    71   119   121   ar
    72   130   128   am
    73   120   122   ar
    74   133   132    2
    75    60    58   ar
    76   152   153    1
    77    57    56   ar
    78   129   128    2
    79   132   141   am
    80   128   127    1
    81   157   158    1
    82   157   156    1
    83   160   158   ar
    84   153   156    1
    85   153   154    1
    86   127   126    1
    87   121   123   ar
    88   158   159   ar
    89   122   124   ar
    90    58    56   ar
    91    56    55    1
    92   141   142    1
    93    33    31   ar
    94    33    32   ar
    95   154   155    2
    96    31    29   ar
    97   123   124   ar
    98   124   125    1
    99    55    52    1
   100   142   143    1
   101   142   145    1
   102   143   144    2
   103    32    30   ar
   104    29    28   ar
   105    29    27   ar
   106    18    16   ar
   107    18    19   ar
   108    42    40   ar
   109    28    26   ar
   110    41    40   ar
   111    16    14   ar
   112    19    17   ar
   113    40    39    1
   114   145   146    1
   115    52    53    1
   116    52    51    1
   117    30    27   ar
   118    27    25   ar
   119    53    54    2
   120    26    25   ar
   121    23    22    2
   122   147   146   ar
   123   147   149   ar
   124    49    48    2
   125    14    13    1
   126    14    15   ar
   127   146   148   ar
   128    25    24    1
   129    17    15   ar
   130     4     3    2
   131    39    38    1
   132    43    44    1
   133    43    36   am
   134    22    34   am
   135    22    21    1
   136    13    10    1
   137    10    11    1
   138    10     9    1
   139    20    21    1
   140    20    11   am
   141    35    38    1
   142    35    34    1
   143    35    36    1
   144   149   151   ar
   145    44    45    1
   146    44    47    1
   147    48    50   am
   148    48    47    1
   149     3     9   am
   150     3     2    1
   151   148   150   ar
   152     1     2    1
   153    21    24    1
   154    36    37    2
   155    11    12    2
   156    45    46    2
   157     2     5    1
   158   151   150   ar
   159     5     6    1
   160     6     8    1
   161     6     7    1
