@<TRIPOS>MOLECULE
tmp/1ismA00.pdb
 97 91 0 0 0
SMALL
GASTEIGER

@<TRIPOS>ATOM
      1  N         11.3500   62.3650   92.1820 N.3    78  ASN78      -0.1225
      2  CA        10.0150   62.4880   92.7540 C.3    78  ASN78       0.1785
      3  C          9.8100   63.7560   93.5710 C.2    78  ASN78       0.2597
      4  O          9.5080   63.6750   94.7590 O.2    78  ASN78      -0.2718
      5  CB         9.7060   61.2890   93.6620 C.3    78  ASN78       0.1169
      6  CG        10.0440   59.9560   93.0200 C.2    78  ASN78       0.2627
      7  OD1        9.6650   59.6870   91.8800 O.2    78  ASN78      -0.2716
      8  ND2       10.7500   59.1080   93.7610 N.am   78  ASN78      -0.0877
      9  N          9.9660   64.9210   92.9530 N.am   79  SER79      -0.1952
     10  CA         9.7620   66.1830   93.6640 C.3    79  SER79       0.1924
     11  C         10.0090   67.3810   92.7540 C.2    79  SER79       0.2314
     12  O         10.3110   68.4890   93.2030 O.2    79  SER79      -0.2863
     13  CB        10.6580   66.2500   94.9130 C.3    79  SER79       0.2116
     14  OG        11.9790   65.8250   94.6390 O.3    79  SER79      -0.2180
     15  N          8.3040   69.7070   91.1390 N.3    81  LEU81      -0.1231
     16  CA         7.7920   71.0210   91.4920 C.3    81  LEU81       0.1693
     17  C          8.4640   71.6240   92.7200 C.2    81  LEU81       0.2591
     18  O          8.8820   72.7910   92.6940 O.2    81  LEU81      -0.2718
     19  CB         6.2820   70.9660   91.6990 C.3    81  LEU81       0.0284
     20  CG         5.4430   70.7810   90.4320 C.3    81  LEU81       0.0019
     21  CD1        4.0090   71.0530   90.7840 C.3    81  LEU81       0.0001
     22  CD2        5.8810   71.7330   89.3260 C.3    81  LEU81       0.0001
     23  N          8.5760   70.8410   93.7900 N.am   82  LEU82      -0.1980
     24  CA         9.2060   71.3450   95.0040 C.3    82  LEU82       0.1596
     25  C         10.6310   71.7910   94.6970 C.2    82  LEU82       0.2287
     26  O         11.0850   72.8290   95.1830 O.2    82  LEU82      -0.2864
     27  CB         9.2180   70.2770   96.1070 C.3    82  LEU82       0.0297
     28  CG         9.7960   70.7600   97.4430 C.3    82  LEU82       0.0022
     29  CD1        8.9960   71.9380   97.9300 C.3    82  LEU82       0.0001
     30  CD2        9.7710   69.6550   98.4800 C.3    82  LEU82       0.0001
     31  N         12.1410   61.9740   97.8220 N.3   159  ASN159     -0.1240
     32  CA        10.8060   61.9890   98.4170 C.3   159  ASN159      0.1653
     33  C         10.4720   60.8020   99.3290 C.2   159  ASN159      0.2266
     34  O         10.0390   59.7520   98.8590 O.2   159  ASN159     -0.2867
     35  CB         9.7700   62.0490   97.3110 C.3   159  ASN159      0.1155
     36  CG         8.4040   62.3700   97.8270 C.2   159  ASN159      0.2627
     37  OD1        8.0870   62.1260   98.9900 O.2   159  ASN159     -0.2716
     38  ND2        7.5770   62.9090   96.9470 N.am  159  ASN159     -0.0877
     39  N          7.9870   60.2100  101.1100 N.3   161  SER161     -0.1202
     40  CA         6.5740   59.8520  101.1850 C.3   161  SER161      0.2020
     41  C          6.2050   59.0670   99.9420 C.2   161  SER161      0.2619
     42  O          5.0420   58.7400   99.7220 O.2   161  SER161     -0.2717
     43  CB         5.6920   61.1000  101.2720 C.3   161  SER161      0.2103
     44  OG         5.8950   61.7990  102.4890 O.3   161  SER161     -0.2182
     45  N          7.2170   58.7670   99.1370 N.am  162  GLU162     -0.1965
     46  CA         7.0440   58.0290   97.8960 C.3   162  GLU162      0.1718
     47  C          6.7740   56.5530   98.1490 C.2   162  GLU162      0.2458
     48  O          7.5870   55.8550   98.7430 O.2   162  GLU162     -0.2730
     49  CB         8.2970   58.1890   97.0430 C.3   162  GLU162      0.0428
     50  CG         8.2420   57.4820   95.7170 C.3   162  GLU162      0.1163
     51  CD         6.9770   57.7980   94.9620 C.2   162  GLU162      0.3649
     52  OE1        6.5570   58.9840   94.9740 O.co2 162  GLU162     -0.2457
     53  OE2        6.4170   56.8540   94.3570 O.co2 162  GLU162     -0.2457
     54  N          5.6220   56.0570   97.6780 N.am  163  PRO163     -0.2727
     55  CA         5.1750   54.6650   97.8210 C.3   163  PRO163      0.1402
     56  C          6.2060   53.5910   97.4920 C.2   163  PRO163      0.2269
     57  O          6.1760   52.5080   98.0710 O.2   163  PRO163     -0.2865
     58  CB         3.9770   54.5890   96.8770 C.3   163  PRO163      0.0296
     59  CG         3.4150   55.9680   96.9470 C.3   163  PRO163      0.0237
     60  CD         4.6530   56.8330   96.8810 C.3   163  PRO163      0.0939
     61  N         12.7660   64.3680  101.9070 N.3   194  MET194     -0.1245
     62  CA        11.6420   65.1790  102.3390 C.3   194  MET194      0.1570
     63  C         10.3670   64.3680  102.4770 C.2   194  MET194      0.2261
     64  O         10.0440   63.5430  101.6230 O.2   194  MET194     -0.2867
     65  CB        11.4140   66.3200  101.3500 C.3   194  MET194      0.0387
     66  CG        12.6320   67.1960  101.1280 C.3   194  MET194      0.0595
     67  SD        13.3070   67.8390  102.6790 S.3   194  MET194     -0.1393
     68  CE        12.0230   68.9990  103.1780 C.3   194  MET194      0.0692
     69  N          6.1080   64.4180  103.2180 N.3   196  GLU196     -0.1245
     70  CA         4.9490   65.2720  103.0570 C.3   196  GLU196      0.1567
     71  C          4.4990   65.7580  104.4410 C.2   196  GLU196      0.2260
     72  O          4.7070   65.0670  105.4430 O.2   196  GLU196     -0.2867
     73  CB         3.8240   64.4830  102.3850 C.3   196  GLU196      0.0388
     74  CG         4.1060   64.0330  100.9550 C.3   196  GLU196      0.1160
     75  CD         4.3930   65.1910  100.0170 C.2   196  GLU196      0.3649
     76  OE1        3.6850   66.2150  100.0990 O.co2 196  GLU196     -0.2457
     77  OE2        5.3210   65.0780   99.1920 O.co2 196  GLU196     -0.2457
     78  N          1.9220   63.7800  105.6520 N.3   199  GLY199     -0.1210
     79  CA         1.9710   62.6790  104.7050 C.3   199  GLY199      0.1940
     80  C          2.7340   61.4570  105.1700 C.2   199  GLY199      0.2453
     81  O          3.5030   61.5360  106.1250 O.2   199  GLY199     -0.2732
     82  N          2.5590   60.3140  104.4830 N.am  200  PRO200     -0.2728
     83  CA         3.1890   59.0170  104.7580 C.3   200  PRO200      0.1401
     84  C          4.7040   59.0540  104.8210 C.2   200  PRO200      0.2269
     85  O          5.3680   59.5220  103.8990 O.2   200  PRO200     -0.2865
     86  CB         2.6980   58.1440  103.6130 C.3   200  PRO200      0.0296
     87  CG         2.6000   59.1170  102.4920 C.3   200  PRO200      0.0237
     88  CD         1.9160   60.2940  103.1580 C.3   200  PRO200      0.0939
     89  N          7.5000   73.7330  102.3140 N.3   237  GLN237     -0.1245
     90  CA         6.3440   72.8470  102.2750 C.3   237  GLN237      0.1566
     91  C          5.3000   73.4050  103.2310 C.2   237  GLN237      0.2260
     92  O          4.1020   73.4180  102.9380 O.2   237  GLN237     -0.2867
     93  CB         6.7100   71.4560  102.7640 C.3   237  GLN237      0.0367
     94  CG         7.8040   70.7650  102.0190 C.3   237  GLN237      0.0905
     95  CD         8.0740   69.4070  102.6200 C.2   237  GLN237      0.2608
     96  OE1        8.4880   69.3020  103.7720 O.2   237  GLN237     -0.2717
     97  NE2        7.8260   68.3550  101.8510 N.am  237  GLN237     -0.0878
@<TRIPOS>BOND
     1    22    20    1
     2    20    21    1
     3    20    19    1
     4    15    16    1
     5    16    19    1
     6    16    17    1
     7     7     6    2
     8     1     2    1
     9    18    17    2
    10    17    23   am
    11    11    12    2
    12    11    10    1
    13     2     3    1
    14     2     5    1
    15     9     3   am
    16     9    10    1
    17     6     5    1
    18     6     8   am
    19     3     4    2
    20    10    13    1
    21    23    24    1
    22    53    51   ar
    23    14    13    1
    24    25    24    1
    25    25    26    2
    26    51    52   ar
    27    51    50    1
    28    24    27    1
    29    50    49    1
    30    27    28    1
    31    58    59    1
    32    58    55    1
    33    60    59    1
    34    60    54    1
    35    38    36   am
    36    49    46    1
    37    35    36    1
    38    35    32    1
    39    28    29    1
    40    28    30    1
    41    56    55    1
    42    56    57    2
    43    54    55    1
    44    54    47   am
    45    31    32    1
    46    36    37    2
    47    46    47    1
    48    46    45    1
    49    47    48    2
    50    32    33    1
    51    34    33    2
    52    45    41   am
    53    77    75   ar
    54    42    41    2
    55    41    40    1
    56    75    76   ar
    57    75    74    1
    58    74    73    1
    59    39    40    1
    60    66    65    1
    61    66    67    1
    62    40    43    1
    63    43    44    1
    64    65    62    1
    65    64    63    2
    66    97    95   am
    67    61    62    1
    68    94    95    1
    69    94    93    1
    70    90    89    1
    71    90    93    1
    72    90    91    1
    73    62    63    1
    74    73    70    1
    75    87    88    1
    76    87    86    1
    77    95    96    2
    78    67    68    1
    79    92    91    2
    80    70    69    1
    81    70    71    1
    82    88    82    1
    83    86    83    1
    84    85    84    2
    85    71    72    2
    86    82    83    1
    87    82    80   am
    88    79    80    1
    89    79    78    1
    90    83    84    1
    91    80    81    2
