@<TRIPOS>MOLECULE
tmp/1ismA01.pdb
 97 96 0 0 0
SMALL
GASTEIGER

@<TRIPOS>ATOM
      1  N         17.6710   65.4090   91.8610 N.3    76  TRP76      -0.1241
      2  CA        16.4380   65.0090   92.5450 C.3    76  TRP76       0.1605
      3  C         15.7140   63.8410   91.9240 C.2    76  TRP76       0.2264
      4  O         16.0790   63.3520   90.8580 O.2    76  TRP76      -0.2867
      5  CB        15.4460   66.1600   92.6010 C.3    76  TRP76       0.0550
      6  CG        15.1220   66.7100   91.2660 C.ar   76  TRP76       0.0003
      7  CD1       15.7850   67.7040   90.6140 C.ar   76  TRP76       0.0946
      8  CD2       14.0530   66.3100   90.4040 C.ar   76  TRP76       0.0152
      9  NE1       15.1950   67.9550   89.3980 N.ar   76  TRP76      -0.2442
     10  CE2       14.1300   67.1110   89.2430 C.ar   76  TRP76       0.0810
     11  CE3       13.0370   65.3540   90.4970 C.ar   76  TRP76       0.0012
     12  CZ2       13.2270   66.9850   88.1790 C.ar   76  TRP76       0.0191
     13  CZ3       12.1350   65.2300   89.4340 C.ar   76  TRP76       0.0001
     14  CH2       12.2410   66.0430   88.2930 C.ar   76  TRP76       0.0015
     15  N          9.8500   67.1400   91.4600 N.3    80  HIS80      -0.1241
     16  CA        10.0510   68.1490   90.4310 C.3    80  HIS80       0.1621
     17  C          9.5800   69.5600   90.8110 C.2    80  HIS80       0.2264
     18  O         10.3660   70.5080   90.8070 O.2    80  HIS80      -0.2867
     19  CB         9.3550   67.6950   89.1470 C.3    80  HIS80       0.0745
     20  CG         9.8250   68.4080   87.9230 C.ar   80  HIS80       0.0817
     21  ND1        9.3490   68.1140   86.6640 N.ar   80  HIS80      -0.2268
     22  CD2       10.7380   69.3940   87.7600 C.ar   80  HIS80       0.1154
     23  CE1        9.9500   68.8870   85.7770 C.ar   80  HIS80       0.1986
     24  NE2       10.7980   69.6730   86.4170 N.ar   80  HIS80      -0.2212
     25  N         18.8840   70.9970   87.1250 N.3    96  LEU96      -0.1231
     26  CA        18.9250   70.8880   85.6640 C.3    96  LEU96       0.1693
     27  C         17.8300   71.7320   84.9980 C.2    96  LEU96       0.2592
     28  O         17.9970   72.2110   83.8820 O.2    96  LEU96      -0.2718
     29  CB        18.7830   69.4240   85.2330 C.3    96  LEU96       0.0284
     30  CG        18.6690   69.1670   83.7270 C.3    96  LEU96       0.0019
     31  CD1       19.8950   69.7260   83.0470 C.3    96  LEU96       0.0001
     32  CD2       18.5340   67.6760   83.4300 C.3    96  LEU96       0.0001
     33  N         16.7080   71.9120   85.6840 N.am   97  SER97      -0.1952
     34  CA        15.6080   72.7090   85.1460 C.3    97  SER97       0.1924
     35  C         15.9260   74.1960   85.2260 C.2    97  SER97       0.2314
     36  O         15.1430   75.0380   84.7690 O.2    97  SER97      -0.2863
     37  CB        14.3210   72.4100   85.9150 C.3    97  SER97       0.2116
     38  OG        14.6080   72.1810   87.2820 O.3    97  SER97      -0.2180
     39  N         11.9000   72.3170   80.2210 N.3   106  ASP106     -0.1225
     40  CA        11.2570   71.9230   81.4710 C.3   106  ASP106      0.1805
     41  C          9.7460   71.7870   81.3290 C.2   106  ASP106      0.2597
     42  O          9.0490   72.7230   80.9420 O.2   106  ASP106     -0.2718
     43  CB        11.5480   72.9280   82.5850 C.3   106  ASP106      0.1424
     44  CG        11.1560   72.4000   83.9660 C.2   106  ASP106      0.3668
     45  OD1       10.9160   73.2160   84.8790 O.co2 106  ASP106     -0.2456
     46  OD2       11.1020   71.1660   84.1440 O.co2 106  ASP106     -0.2456
     47  N          9.2500   70.6000   81.6430 N.am  107  PHE107     -0.1976
     48  CA         7.8270   70.3090   81.5880 C.3   107  PHE107      0.1639
     49  C          7.1850   70.2830   80.2180 C.2   107  PHE107      0.2290
     50  O          5.9940   70.0110   80.1200 O.2   107  PHE107     -0.2864
     51  CB         7.0540   71.2760   82.4800 C.3   107  PHE107      0.0560
     52  CG         7.1730   70.9740   83.9410 C.ar  107  PHE107     -0.0200
     53  CD1        7.7690   71.8790   84.8090 C.ar  107  PHE107     -0.0042
     54  CD2        6.6580   69.7990   84.4590 C.ar  107  PHE107     -0.0042
     55  CE1        7.8440   71.6150   86.1840 C.ar  107  PHE107     -0.0003
     56  CE2        6.7260   69.5260   85.8320 C.ar  107  PHE107     -0.0003
     57  CZ         7.3180   70.4360   86.6930 C.ar  107  PHE107     -0.0000
     58  N         16.5360   64.2270   77.7470 N.3   139  TRP139     -0.1241
     59  CA        16.9160   64.2560   79.1540 C.3   139  TRP139      0.1605
     60  C         18.1330   63.4060   79.4750 C.2   139  TRP139      0.2264
     61  O         18.9810   63.8230   80.2620 O.2   139  TRP139     -0.2867
     62  CB        15.7260   63.8810   80.0410 C.3   139  TRP139      0.0550
     63  CG        14.6790   64.9450   79.9850 C.ar  139  TRP139      0.0003
     64  CD1       13.4530   64.8610   79.4010 C.ar  139  TRP139      0.0946
     65  CD2       14.8200   66.3000   80.4270 C.ar  139  TRP139      0.0152
     66  NE1       12.8210   66.0800   79.4410 N.ar  139  TRP139     -0.2442
     67  CE2       13.6390   66.9810   80.0680 C.ar  139  TRP139      0.0810
     68  CE3       15.8330   67.0040   81.0890 C.ar  139  TRP139      0.0012
     69  CZ2       13.4380   68.3330   80.3490 C.ar  139  TRP139      0.0191
     70  CZ3       15.6360   68.3490   81.3700 C.ar  139  TRP139      0.0001
     71  CH2       14.4430   69.0000   80.9990 C.ar  139  TRP139      0.0015
     72  N         20.9640   65.2900   81.2460 N.3   143  SER143     -0.1217
     73  CA        21.3540   64.7670   82.5580 C.3   143  SER143      0.1889
     74  C         22.8510   64.5350   82.6490 C.2   143  SER143      0.2288
     75  O         23.5230   65.0390   83.5530 O.2   143  SER143     -0.2866
     76  CB        20.6570   63.4380   82.8280 C.3   143  SER143      0.2089
     77  OG        19.2620   63.6090   82.9200 O.3   143  SER143     -0.2183
     78  N         16.7120   58.6070   86.4380 N.3   172  PHE172     -0.1241
     79  CA        17.7840   59.4030   85.8760 C.3   172  PHE172      0.1605
     80  C         18.9220   59.5420   86.8730 C.2   172  PHE172      0.2264
     81  O         20.0860   59.3790   86.5080 O.2   172  PHE172     -0.2867
     82  CB        17.2880   60.7820   85.4430 C.3   172  PHE172      0.0534
     83  CG        16.5300   60.7660   84.1570 C.ar  172  PHE172     -0.0203
     84  CD1       15.1500   60.5940   84.1470 C.ar  172  PHE172     -0.0042
     85  CD2       17.2020   60.8820   82.9440 C.ar  172  PHE172     -0.0042
     86  CE1       14.4450   60.5350   82.9420 C.ar  172  PHE172     -0.0003
     87  CE2       16.5110   60.8240   81.7350 C.ar  172  PHE172     -0.0003
     88  CZ        15.1300   60.6490   81.7340 C.ar  172  PHE172     -0.0000
     89  N         22.8980   60.0790   86.1560 N.3   177  GLU177     -0.1245
     90  CA        23.5750   61.1170   86.9010 C.3   177  GLU177      0.1567
     91  C         24.7280   60.6000   87.7480 C.2   177  GLU177      0.2260
     92  O         25.8780   60.9600   87.5120 O.2   177  GLU177     -0.2867
     93  CB        22.5550   61.8740   87.7450 C.3   177  GLU177      0.0388
     94  CG        21.8250   62.9420   86.9550 C.3   177  GLU177      0.1160
     95  CD        20.3830   63.1080   87.3740 C.2   177  GLU177      0.3649
     96  OE1       20.1010   63.1320   88.5870 O.co2 177  GLU177     -0.2457
     97  OE2       19.5200   63.2290   86.4850 O.co2 177  GLU177     -0.2457
@<TRIPOS>BOND
     1    58    59    1
     2    59    60    1
     3    59    62    1
     4    64    66   ar
     5    64    63   ar
     6    66    67   ar
     7    60    61    2
     8    63    62    1
     9    63    65   ar
    10    67    69   ar
    11    67    65   ar
    12    50    49    2
    13    49    48    1
    14    39    40    1
    15    69    71   ar
    16    65    68   ar
    17    42    41    2
    18    71    70   ar
    19    68    70   ar
    20    72    73    1
    21    41    40    1
    22    41    47   am
    23    40    43    1
    24    48    47    1
    25    48    51    1
    26    88    87   ar
    27    88    86   ar
    28    87    85   ar
    29    51    52    1
    30    73    74    1
    31    73    76    1
    32    43    44    1
    33    74    75    2
    34    76    77    1
    35    86    84   ar
    36    85    83   ar
    37    31    30    1
    38    32    30    1
    39    30    29    1
    40    28    27    2
    41    52    54   ar
    42    52    53   ar
    43    44    46   ar
    44    44    45   ar
    45    84    83   ar
    46    83    82    1
    47    54    56   ar
    48    36    35    2
    49    53    55   ar
    50    27    26    1
    51    27    33   am
    52    34    35    1
    53    34    33    1
    54    34    37    1
    55    29    26    1
    56    82    79    1
    57    26    25    1
    58    23    24   ar
    59    23    21   ar
    60    56    57   ar
    61    79    78    1
    62    79    80    1
    63    37    38    1
    64    89    90    1
    65    55    57   ar
    66    24    22   ar
    67    97    95   ar
    68    81    80    2
    69    21    20   ar
    70    90    93    1
    71    90    91    1
    72    94    95    1
    73    94    93    1
    74    95    96   ar
    75    92    91    2
    76    22    20   ar
    77    20    19    1
    78    12    14   ar
    79    12    10   ar
    80    14    13   ar
    81    19    16    1
    82    10     9   ar
    83    10     8   ar
    84     9     7   ar
    85    13    11   ar
    86     8    11   ar
    87     8     6   ar
    88    16    17    1
    89    16    15    1
    90     7     6   ar
    91    18    17    2
    92     4     3    2
    93     6     5    1
    94     1     2    1
    95     3     2    1
    96     2     5    1
