@<TRIPOS>MOLECULE
tmp/1isoA00.pdb
 99 96 0 0 0
SMALL
GASTEIGER

@<TRIPOS>ATOM
      1  N        -97.5500  -61.0460   -1.9300 N.3    35  ILE35      -0.1245
      2  CA       -98.5360  -61.7190   -1.1020 C.3    35  ILE35       0.1561
      3  C        -98.5330  -61.2430    0.3600 C.2    35  ILE35       0.2260
      4  O        -99.3590  -61.6980    1.1480 O.2    35  ILE35      -0.2867
      5  CB       -98.3390  -63.2780   -1.1390 C.3    35  ILE35       0.0252
      6  CG1      -96.9370  -63.7430   -0.7400 C.3    35  ILE35       0.0019
      7  CG2      -98.7190  -63.7070   -2.5470 C.3    35  ILE35       0.0019
      8  CD1      -96.9150  -65.2720   -0.5700 C.3    35  ILE35       0.0001
      9  N        -92.1520  -75.4560    2.6890 N.3   318  ILE318     -0.1231
     10  CA       -91.5330  -74.3120    2.0070 C.3   318  ILE318      0.1692
     11  C        -92.3470  -73.0180    2.1620 C.2   318  ILE318      0.2592
     12  O        -91.7530  -71.9510    2.1890 O.2   318  ILE318     -0.2718
     13  CB       -91.3250  -74.7100    0.5060 C.3   318  ILE318      0.0266
     14  CG1      -90.4870  -73.7010   -0.2060 C.3   318  ILE318      0.0019
     15  CG2      -92.6980  -74.8590   -0.1850 C.3   318  ILE318      0.0020
     16  CD1      -90.2880  -74.0980   -1.6830 C.3   318  ILE318      0.0001
     17  N        -93.6740  -73.0610    2.3080 N.am  319  GLY319     -0.1957
     18  CA       -94.4990  -71.8920    2.4910 C.3   319  GLY319      0.1869
     19  C        -95.0250  -71.7210    3.9200 C.2   319  GLY319      0.2309
     20  O        -95.8250  -70.8110    4.1640 O.2   319  GLY319     -0.2863
     21  N        -90.7220  -67.1120    2.9870 N.3   337  HIS337     -0.1226
     22  CA       -90.9070  -67.3700    1.5580 C.3   337  HIS337      0.1752
     23  C        -90.7790  -66.0770    0.7040 C.2   337  HIS337      0.2597
     24  O        -90.6450  -64.9620    1.2170 O.2   337  HIS337     -0.2718
     25  CB       -92.2940  -68.0130    1.3650 C.3   337  HIS337      0.0759
     26  CG       -93.3820  -67.0960    1.8980 C.ar  337  HIS337      0.0818
     27  ND1      -93.7320  -65.9000    1.4460 N.ar  337  HIS337     -0.2268
     28  CD2      -94.1560  -67.3610    2.9980 C.ar  337  HIS337      0.1154
     29  CE1      -94.6730  -65.4270    2.2090 C.ar  337  HIS337      0.1986
     30  NE2      -94.9210  -66.3130    3.1430 N.ar  337  HIS337     -0.2212
     31  N        -90.9040  -66.1930   -0.6280 N.am  338  GLY338     -0.1942
     32  CA       -90.8500  -65.0330   -1.4910 C.3   338  GLY338      0.2014
     33  C        -92.1440  -64.2370   -1.5380 C.2   338  GLY338      0.2640
     34  O        -93.1500  -64.5250   -0.8810 O.2   338  GLY338     -0.2714
     35  N        -92.1120  -63.2270   -2.4030 N.am  339  THR339     -0.1936
     36  CA       -93.2460  -62.3260   -2.5600 C.3   339  THR339      0.2028
     37  C        -94.3660  -62.8550   -3.4440 C.2   339  THR339      0.2642
     38  O        -95.4370  -62.2460   -3.4470 O.2   339  THR339     -0.2714
     39  CB       -92.7560  -60.9880   -3.1140 C.3   339  THR339      0.1808
     40  OG1      -92.0480  -61.2490   -4.3280 O.3   339  THR339     -0.2208
     41  CG2      -91.8840  -60.2850   -2.1110 C.3   339  THR339      0.0379
     42  N        -94.1220  -63.9460   -4.2090 N.am  340  ALA340     -0.1963
     43  CA       -95.0950  -64.5800   -5.0900 C.3   340  ALA340      0.1713
     44  C        -96.0360  -63.6140   -5.8380 C.2   340  ALA340      0.2458
     45  O        -97.2730  -63.6510   -5.7060 O.2   340  ALA340     -0.2730
     46  CB       -95.9100  -65.5530   -4.2370 C.3   340  ALA340      0.0333
     47  N        -95.4870  -62.6690   -6.6150 N.am  341  PRO341     -0.2716
     48  CA       -96.2760  -61.6120   -7.2130 C.3   341  PRO341      0.1536
     49  C        -97.3490  -62.1740   -8.1610 C.2   341  PRO341      0.2599
     50  O        -98.4050  -61.5740   -8.3230 O.2   341  PRO341     -0.2715
     51  CB       -95.2010  -60.7190   -7.8430 C.3   341  PRO341      0.0310
     52  CG       -94.1140  -61.6830   -8.2010 C.3   341  PRO341      0.0237
     53  CD       -94.0770  -62.5840   -6.9820 C.3   341  PRO341      0.0939
     54  N        -97.1610  -63.3850   -8.6920 N.am  342  ASP342     -0.1958
     55  CA       -98.1200  -64.0550   -9.5640 C.3   342  ASP342      0.1840
     56  C        -99.4610  -64.2500   -8.8770 C.2   342  ASP342      0.2621
     57  O       -100.4750  -64.2220   -9.5740 O.2   342  ASP342     -0.2715
     58  CB       -97.5850  -65.4370   -9.9970 C.3   342  ASP342      0.1450
     59  CG       -97.3670  -66.4960   -8.8910 C.2   342  ASP342      0.3671
     60  OD1      -96.8770  -66.1630   -7.8070 O.co2 342  ASP342     -0.2456
     61  OD2      -97.6870  -67.6710   -9.1130 O.co2 342  ASP342     -0.2456
     62  N        -99.5220  -64.4670   -7.5450 N.am  343  ILE343     -0.1977
     63  CA      -100.8220  -64.6230   -6.9040 C.3   343  ILE343      0.1596
     64  C       -101.1490  -63.5070   -5.9170 C.2   343  ILE343      0.2287
     65  O       -102.1800  -63.5690   -5.2310 O.2   343  ILE343     -0.2864
     66  CB      -100.9300  -65.9810   -6.1560 C.3   343  ILE343      0.0276
     67  CG1      -99.7750  -66.1660   -5.1860 C.3   343  ILE343      0.0022
     68  CG2     -100.9850  -67.0980   -7.1770 C.3   343  ILE343      0.0022
     69  CD1      -99.9760  -67.3800   -4.2530 C.3   343  ILE343      0.0001
     70  N       -104.9070  -66.1120   -1.9020 N.3   348  LYS348     -0.1231
     71  CA      -104.5780  -67.5100   -2.1940 C.3   348  LYS348      0.1693
     72  C       -103.3930  -68.0580   -1.4340 C.2   348  LYS348      0.2592
     73  O       -103.3530  -69.2490   -1.1200 O.2   348  LYS348     -0.2718
     74  CB      -104.2080  -67.7570   -3.6460 C.3   348  LYS348      0.0285
     75  CG      -105.3570  -67.6760   -4.6070 C.3   348  LYS348      0.0035
     76  CD      -104.7350  -67.8040   -5.9960 C.3   348  LYS348      0.0206
     77  CE      -105.7980  -68.0730   -7.0630 C.3   348  LYS348      0.1093
     78  NZ      -106.8350  -67.0590   -7.0630 N.3   348  LYS348     -0.1314
     79  N       -102.4440  -67.1710   -1.1560 N.am  349  ALA349     -0.1966
     80  CA      -101.1610  -67.5500   -0.5650 C.3   349  ALA349      0.1728
     81  C       -101.3130  -68.2260    0.7830 C.2   349  ALA349      0.2616
     82  O       -102.3220  -68.0260    1.4540 O.2   349  ALA349     -0.2715
     83  CB      -100.2760  -66.3210   -0.3450 C.3   349  ALA349      0.0334
     84  N       -100.3390  -69.0730    1.1310 N.am  350  ASN350     -0.1972
     85  CA      -100.3010  -69.7190    2.4220 C.3   350  ASN350      0.1688
     86  C        -99.8000  -68.7140    3.4700 C.2   350  ASN350      0.2292
     87  O        -98.6530  -68.2520    3.3850 O.2   350  ASN350     -0.2864
     88  CB       -99.3770  -70.9200    2.3180 C.3   350  ASN350      0.1181
     89  CG       -99.5930  -71.8870    3.4680 C.2   350  ASN350      0.2629
     90  OD1      -99.9690  -71.4850    4.5670 O.2   350  ASN350     -0.2716
     91  ND2      -99.3880  -73.1880    3.3020 N.am  350  ASN350     -0.0877
     92  N       -101.3450  -74.3350   -2.4300 N.3   390  ASP390     -0.1239
     93  CA      -100.0010  -74.8740   -2.4650 C.3   390  ASP390      0.1674
     94  C        -99.8950  -76.2080   -1.7430 C.2   390  ASP390      0.2266
     95  O        -99.0330  -77.0210   -2.0600 O.2   390  ASP390     -0.2867
     96  CB       -99.0380  -73.8340   -1.8570 C.3   390  ASP390      0.1410
     97  CG       -99.4220  -73.4110   -0.4390 C.2   390  ASP390      0.3668
     98  OD1     -100.4600  -72.7810   -0.2610 O.co2 390  ASP390     -0.2456
     99  OD2      -98.6690  -73.7040    0.4800 O.co2 390  ASP390     -0.2456
@<TRIPOS>BOND
     1    58    55    1
     2    58    59    1
     3    57    56    2
     4    55    56    1
     5    55    54    1
     6    61    59   ar
     7    59    60   ar
     8    56    62   am
     9    54    49   am
    10    50    49    2
    11    52    51    1
    12    52    53    1
    13    49    48    1
    14    51    48    1
    15    62    63    1
    16    48    47    1
    17    68    66    1
    18    77    78    1
    19    77    76    1
    20    53    47    1
    21    63    66    1
    22    63    64    1
    23    47    44   am
    24    66    67    1
    25    76    75    1
    26    64    65    2
    27    44    45    2
    28    44    43    1
    29    67    69    1
    30    43    46    1
    31    43    42    1
    32    75    74    1
    33    40    39    1
    34    42    37   am
    35    74    71    1
    36    38    37    2
    37    37    36    1
    38    39    36    1
    39    39    41    1
    40    36    35    1
    41     7     5    1
    42    93    92    1
    43    93    96    1
    44    93    94    1
    45    35    33   am
    46    71    70    1
    47    71    72    1
    48    95    94    2
    49     1     2    1
    50    96    97    1
    51    16    14    1
    52    33    32    1
    53    33    34    2
    54    32    31    1
    55    72    79   am
    56    72    73    2
    57    79    80    1
    58     5     2    1
    59     5     6    1
    60     2     3    1
    61     6     8    1
    62    31    23   am
    63    80    83    1
    64    80    81    1
    65    97    98   ar
    66    97    99   ar
    67    14    13    1
    68    15    13    1
    69     3     4    2
    70    13    10    1
    71    23    24    2
    72    23    22    1
    73    81    84   am
    74    81    82    2
    75    84    85    1
    76    25    22    1
    77    25    26    1
    78    27    26   ar
    79    27    29   ar
    80    22    21    1
    81    26    28   ar
    82    10    11    1
    83    10     9    1
    84    11    12    2
    85    11    17   am
    86    29    30   ar
    87    17    18    1
    88    88    85    1
    89    88    89    1
    90    85    86    1
    91    18    19    1
    92    28    30   ar
    93    91    89   am
    94    87    86    2
    95    89    90    2
    96    19    20    2
