@<TRIPOS>MOLECULE
tmp/1isqA00.pdb
 148 144 0 0 0
SMALL
GASTEIGER

@<TRIPOS>ATOM
      1  N        -28.4810   39.9360    7.4860 N.3    40  MET40      -0.1245
      2  CA       -28.6380   41.2650    8.0530 C.3    40  MET40       0.1570
      3  C        -27.3830   41.5680    8.8340 C.2    40  MET40       0.2261
      4  O        -26.7480   40.6540    9.3610 O.2    40  MET40      -0.2867
      5  CB       -29.8120   41.3280    9.0170 C.3    40  MET40       0.0387
      6  CG       -31.1590   41.4330    8.3740 C.3    40  MET40       0.0595
      7  SD       -32.3130   41.9380    9.6360 S.3    40  MET40      -0.1393
      8  CE       -32.5820   40.3300   10.4830 C.3    40  MET40       0.0692
      9  N        -26.4090   45.1280   13.6760 N.3    43  SER43      -0.1202
     10  CA       -27.3800   46.0550   14.2570 C.3    43  SER43       0.2020
     11  C        -28.8090   45.9750   13.7030 C.2    43  SER43       0.2619
     12  O        -29.6980   46.6600   14.1970 O.2    43  SER43      -0.2717
     13  CB       -26.8670   47.5080   14.1740 C.3    43  SER43       0.2103
     14  OG       -26.7980   47.9990   12.8380 O.3    43  SER43      -0.2182
     15  N        -29.0310   45.1380   12.6920 N.am   44  ARG44      -0.1965
     16  CA       -30.3680   44.9660   12.0970 C.3    44  ARG44       0.1729
     17  C        -30.8340   46.2200   11.3610 C.2    44  ARG44       0.2616
     18  O        -32.0180   46.5780   11.3980 O.2    44  ARG44      -0.2715
     19  CB       -31.4040   44.6320   13.1710 C.3    44  ARG44       0.0348
     20  CG       -30.9820   43.5800   14.1840 C.3    44  ARG44       0.0492
     21  CD       -31.0320   42.1630   13.6460 C.3    44  ARG44       0.2205
     22  NE       -29.7150   41.7010   13.2380 N.pl3  44  ARG44      -0.0865
     23  CZ       -29.2260   40.4920   13.5090 C.cat  44  ARG44       0.5346
     24  NH1      -29.9460   39.6160   14.1980 N.pl3  44  ARG44       0.1354
     25  NH2      -28.0180   40.1590   13.0760 N.pl3  44  ARG44       0.1354
     26  N        -29.9020   46.8870   10.6920 N.am   45  VAL45      -0.1963
     27  CA       -30.2210   48.0970    9.9560 C.3    45  VAL45       0.1727
     28  C        -30.0680   47.8950    8.4550 C.2    45  VAL45       0.2616
     29  O        -30.7240   48.5660    7.6580 O.2    45  VAL45      -0.2715
     30  CB       -29.3070   49.2440   10.4120 C.3    45  VAL45       0.0290
     31  CG1      -29.5420   50.4900    9.5580 C.3    45  VAL45       0.0023
     32  CG2      -29.5630   49.5320   11.9000 C.3    45  VAL45       0.0023
     33  N        -29.2000   46.9610    8.0740 N.am   46  VAL46      -0.1963
     34  CA       -28.9370   46.7000    6.6670 C.3    46  VAL46       0.1727
     35  C        -29.0410   45.2280    6.3230 C.2    46  VAL46       0.2616
     36  O        -28.5300   44.3750    7.0330 O.2    46  VAL46      -0.2715
     37  CB       -27.5150   47.1560    6.2560 C.3    46  VAL46       0.0290
     38  CG1      -27.5390   47.7160    4.8380 C.3    46  VAL46       0.0023
     39  CG2      -26.9850   48.1690    7.2340 C.3    46  VAL46       0.0023
     40  N        -29.7180   44.9420    5.2230 N.am   47  LEU47      -0.1977
     41  CA       -29.8610   43.5750    4.7580 C.3    47  LEU47       0.1596
     42  C        -29.0520   43.5140    3.4730 C.2    47  LEU47       0.2287
     43  O        -29.0640   44.4580    2.6700 O.2    47  LEU47      -0.2864
     44  CB       -31.3260   43.2500    4.4560 C.3    47  LEU47       0.0297
     45  CG       -31.6130   41.9400    3.7120 C.3    47  LEU47       0.0022
     46  CD1      -31.2570   40.7520    4.5940 C.3    47  LEU47       0.0001
     47  CD2      -33.0800   41.8780    3.3250 C.3    47  LEU47       0.0001
     48  N        -40.7250   41.3730    1.6880 N.3   119  PRO119     -0.2116
     49  CA       -41.8950   42.2600    1.6030 C.3   119  PRO119      0.1372
     50  C        -41.6720   43.4340    0.6510 C.2   119  PRO119      0.2244
     51  O        -41.2110   44.4970    1.0630 O.2   119  PRO119     -0.2868
     52  CB       -42.0870   42.7130    3.0520 C.3   119  PRO119      0.0268
     53  CG       -40.6730   42.7350    3.5770 C.3   119  PRO119      0.0207
     54  CD       -40.1020   41.4450    3.0240 C.3   119  PRO119      0.0892
     55  N        -41.3400   46.6290   -1.4490 N.3   121  LEU121     -0.1245
     56  CA       -41.5760   48.0070   -1.0430 C.3   121  LEU121      0.1561
     57  C        -41.9860   48.8710   -2.2280 C.2   121  LEU121      0.2260
     58  O        -41.4790   48.7080   -3.3390 O.2   121  LEU121     -0.2867
     59  CB       -40.3230   48.5860   -0.3870 C.3   121  LEU121      0.0270
     60  CG       -40.0720   48.1000    1.0400 C.3   121  LEU121      0.0019
     61  CD1      -38.6520   48.4200    1.4510 C.3   121  LEU121      0.0001
     62  CD2      -41.0690   48.7590    1.9790 C.3   121  LEU121      0.0001
     63  N        -28.1710   57.0180    7.2630 N.3   193  GLY193     -0.1225
     64  CA       -26.9620   57.1320    8.0520 C.3   193  GLY193      0.1811
     65  C        -25.7220   57.0800    7.1860 C.2   193  GLY193      0.2280
     66  O        -25.5410   56.1470    6.4000 O.2   193  GLY193     -0.2866
     67  N        -23.3690   53.7870    7.6280 N.3   196  TYR196     -0.1241
     68  CA       -23.8800   52.6210    6.9150 C.3   196  TYR196      0.1605
     69  C        -23.6050   52.7440    5.4080 C.2   196  TYR196      0.2264
     70  O        -23.1130   51.8000    4.7830 O.2   196  TYR196     -0.2867
     71  CB       -25.3870   52.4470    7.1720 C.3   196  TYR196      0.0534
     72  CG       -25.7180   52.0020    8.5900 C.ar  196  TYR196     -0.0201
     73  CD1      -26.1430   52.9190    9.5530 C.ar  196  TYR196     -0.0009
     74  CD2      -25.5670   50.6640    8.9760 C.ar  196  TYR196     -0.0009
     75  CE1      -26.4120   52.5210   10.8680 C.ar  196  TYR196      0.0417
     76  CE2      -25.8270   50.2550   10.2830 C.ar  196  TYR196      0.0417
     77  CZ       -26.2510   51.1880   11.2250 C.ar  196  TYR196      0.1957
     78  OH       -26.5250   50.7830   12.5190 O.3   196  TYR196     -0.2866
     79  N        -39.3850   58.5690    3.5460 N.3   217  GLU217     -0.1231
     80  CA       -39.0750   58.0220    4.8600 C.3   217  GLU217      0.1699
     81  C        -39.1440   56.5010    4.8280 C.2   217  GLU217      0.2592
     82  O        -39.5820   55.8670    5.7880 O.2   217  GLU217     -0.2718
     83  CB       -40.0440   58.5760    5.9090 C.3   217  GLU217      0.0402
     84  CG       -40.2390   60.0860    5.8120 C.3   217  GLU217      0.1161
     85  CD       -40.9290   60.6740    7.0330 C.2   217  GLU217      0.3649
     86  OE1      -40.2550   60.8420    8.0780 O.co2 217  GLU217     -0.2457
     87  OE2      -42.1440   60.9630    6.9480 O.co2 217  GLU217     -0.2457
     88  N        -38.7130   55.9290    3.7070 N.am  218  MET218     -0.1966
     89  CA       -38.6900   54.4820    3.5040 C.3   218  MET218      0.1721
     90  C        -37.2470   54.0150    3.2940 C.2   218  MET218      0.2458
     91  O        -36.3600   54.8180    2.9940 O.2   218  MET218     -0.2730
     92  CB       -39.5200   54.1000    2.2720 C.3   218  MET218      0.0427
     93  CG       -41.0100   54.3540    2.4150 C.3   218  MET218      0.0599
     94  SD       -41.6830   53.5200    3.8660 S.3   218  MET218     -0.1393
     95  CE       -42.0540   51.8860    3.1780 C.3   218  MET218      0.0692
     96  N        -36.9910   52.7110    3.4590 N.am  219  PRO219     -0.2727
     97  CA       -35.6200   52.2570    3.2540 C.3   219  PRO219      0.1402
     98  C        -35.1690   52.4540    1.8170 C.2   219  PRO219      0.2269
     99  O        -35.9680   52.6860    0.9160 O.2   219  PRO219     -0.2865
    100  CB       -35.6620   50.7840    3.6710 C.3   219  PRO219      0.0296
    101  CG       -37.0750   50.4020    3.4960 C.3   219  PRO219      0.0237
    102  CD       -37.8360   51.6170    3.9580 C.3   219  PRO219      0.0939
    103  N        -30.2610   46.6910    1.3560 N.3   235  LEU235     -0.1231
    104  CA       -31.5400   47.2670    1.7750 C.3   235  LEU235      0.1693
    105  C        -31.1860   47.9610    3.0880 C.2   235  LEU235      0.2592
    106  O        -30.7970   47.2990    4.0530 O.2   235  LEU235     -0.2718
    107  CB       -32.5990   46.1760    2.0010 C.3   235  LEU235      0.0284
    108  CG       -34.0380   46.6530    1.7440 C.3   235  LEU235      0.0019
    109  CD1      -35.0550   45.5290    1.9820 C.3   235  LEU235      0.0001
    110  CD2      -34.3400   47.8150    2.6530 C.3   235  LEU235      0.0001
    111  N        -31.3170   49.2870    3.1160 N.am  236  LEU236     -0.1966
    112  CA       -30.9440   50.1020    4.2760 C.3   236  LEU236      0.1728
    113  C        -32.1170   50.8690    4.9250 C.2   236  LEU236      0.2616
    114  O        -32.7870   51.6820    4.2790 O.2   236  LEU236     -0.2715
    115  CB       -29.8760   51.1000    3.8220 C.3   236  LEU236      0.0311
    116  CG       -28.7810   51.7590    4.6750 C.3   236  LEU236      0.0022
    117  CD1      -28.4260   53.0860    3.9980 C.3   236  LEU236      0.0001
    118  CD2      -29.2090   52.0000    6.0960 C.3   236  LEU236      0.0001
    119  N        -32.3530   50.6150    6.2060 N.am  237  ALA237     -0.1964
    120  CA       -33.4220   51.2810    6.9350 C.3   237  ALA237      0.1713
    121  C        -33.1290   52.7890    7.0060 C.2   237  ALA237      0.2458
    122  O        -31.9730   53.2010    7.1590 O.2   237  ALA237     -0.2730
    123  CB       -33.5380   50.6860    8.3440 C.3   237  ALA237      0.0333
    124  N        -34.1760   53.6280    6.8990 N.am  238  PRO238     -0.2716
    125  CA       -34.0800   55.0950    6.9390 C.3   238  PRO238      0.1536
    126  C        -33.8750   55.7230    8.3210 C.2   238  PRO238      0.2598
    127  O        -34.0570   55.0710    9.3480 O.2   238  PRO238     -0.2715
    128  CB       -35.4030   55.5310    6.3170 C.3   238  PRO238      0.0310
    129  CG       -36.3480   54.5020    6.8600 C.3   238  PRO238      0.0237
    130  CD       -35.5700   53.2100    6.6480 C.3   238  PRO238      0.0939
    131  N        -33.5010   56.9990    8.3300 N.am  239  ARG239     -0.1964
    132  CA       -33.3020   57.7450    9.5720 C.3   239  ARG239      0.1729
    133  C        -34.4790   58.6810    9.8530 C.2   239  ARG239      0.2616
    134  O        -34.2850   59.8690   10.0930 O.2   239  ARG239     -0.2715
    135  CB       -32.0190   58.5800    9.5090 C.3   239  ARG239      0.0348
    136  CG       -30.7320   57.7880    9.6380 C.3   239  ARG239      0.0492
    137  CD       -29.5450   58.7330    9.6680 C.3   239  ARG239      0.2205
    138  NE       -29.6990   59.7120   10.7360 N.pl3 239  ARG239     -0.0865
    139  CZ       -28.9160   59.7840   11.8050 C.cat 239  ARG239      0.5346
    140  NH1      -27.9070   58.9340   11.9550 N.pl3 239  ARG239      0.1354
    141  NH2      -29.1530   60.7000   12.7310 N.pl3 239  ARG239      0.1354
    142  N        -35.6940   58.1420    9.8310 N.am  240  VAL240     -0.1977
    143  CA       -36.9030   58.9250   10.0850 C.3   240  VAL240      0.1596
    144  C        -36.8790   59.5920   11.4600 C.2   240  VAL240      0.2287
    145  O        -37.0440   60.8330   11.5360 O.2   240  VAL240     -0.2864
    146  CB       -38.1650   58.0390   10.0010 C.3   240  VAL240      0.0276
    147  CG1      -38.3060   57.4710    8.6020 C.3   240  VAL240      0.0022
    148  CG2      -38.0770   56.9030   11.0180 C.3   240  VAL240      0.0022
@<TRIPOS>BOND
     1    58    57    2
     2    57    56    1
     3    55    56    1
     4    56    59    1
     5    59    60    1
     6    50    51    2
     7    50    49    1
     8    99    98    2
     9    60    61    1
    10    60    62    1
    11   103   104    1
    12    49    48    1
    13    49    52    1
    14    48    54    1
    15   108   109    1
    16   108   107    1
    17   108   110    1
    18   104   107    1
    19   104   105    1
    20    98    97    1
    21    92    93    1
    22    92    89    1
    23    93    94    1
    24    43    42    2
    25    91    90    2
    26    54    53    1
    27    52    53    1
    28   105   111   am
    29   105   106    2
    30   111   112    1
    31    95    94    1
    32    97    96    1
    33    97   100    1
    34    90    96   am
    35    90    89    1
    36    47    45    1
    37    96   102    1
    38    42    41    1
    39   101   100    1
    40   101   102    1
    41    89    88    1
    42    79    80    1
    43    88    81   am
    44    45    44    1
    45    45    46    1
    46   115   112    1
    47   115   116    1
    48   117   116    1
    49   112   113    1
    50   114   113    2
    51    44    41    1
    52   116   118    1
    53    41    40    1
    54    70    69    2
    55    81    80    1
    56    81    82    2
    57    38    37    1
    58    80    83    1
    59   113   119   am
    60    40    35   am
    61    69    68    1
    62    84    83    1
    63    84    85    1
    64   119   120    1
    65    37    34    1
    66    37    39    1
    67   128   129    1
    68   128   125    1
    69    35    34    1
    70    35    36    2
    71    66    65    2
    72   130   129    1
    73   130   124    1
    74    34    33    1
    75   124   125    1
    76   124   121   am
    77    68    71    1
    78    68    67    1
    79   120   121    1
    80   120   123    1
    81   125   126    1
    82    87    85   ar
    83   121   122    2
    84    85    86   ar
    85    71    72    1
    86    65    64    1
    87    63    64    1
    88     1     2    1
    89    29    28    2
    90     2     3    1
    91     2     5    1
    92    33    28   am
    93   126   131   am
    94   126   127    2
    95   131   132    1
    96     6     5    1
    97     6     7    1
    98    28    27    1
    99    72    74   ar
   100    72    73   ar
   101   147   146    1
   102     3     4    2
   103    74    76   ar
   104   135   132    1
   105   135   136    1
   106    73    75   ar
   107    31    30    1
   108   132   133    1
   109     7     8    1
   110   136   137    1
   111   137   138    1
   112   142   133   am
   113   142   143    1
   114   133   134    2
   115    27    30    1
   116    27    26    1
   117   146   143    1
   118   146   148    1
   119   143   144    1
   120    76    77   ar
   121    30    32    1
   122    26    17   am
   123   138   139    2
   124    75    77   ar
   125    77    78    1
   126    17    18    2
   127    17    16    1
   128   144   145    2
   129   139   140    1
   130   139   141    1
   131    16    15    1
   132    16    19    1
   133    15    11   am
   134    14    13    1
   135    25    23    1
   136    19    20    1
   137    22    23    2
   138    22    21    1
   139    23    24    1
   140    21    20    1
   141     9    10    1
   142    11    12    2
   143    11    10    1
   144    13    10    1
