@<TRIPOS>MOLECULE
tmp/1issB00.pdb
 144 137 0 0 0
SMALL
GASTEIGER

@<TRIPOS>ATOM
      1  N         48.3960   37.6540   97.1950 N.3    39  TYR39      -0.1241
      2  CA        49.2180   38.8440   97.4360 C.3    39  TYR39       0.1605
      3  C         49.5340   39.6000   96.1470 C.2    39  TYR39       0.2264
      4  O         50.2470   40.5990   96.1740 O.2    39  TYR39      -0.2867
      5  CB        50.5590   38.4350   98.0840 C.3    39  TYR39       0.0534
      6  CG        50.4760   37.8260   99.4810 C.ar   39  TYR39      -0.0201
      7  CD1       49.3460   37.1240   99.8980 C.ar   39  TYR39      -0.0009
      8  CD2       51.5390   37.9260  100.3780 C.ar   39  TYR39      -0.0009
      9  CE1       49.2730   36.5410  101.1700 C.ar   39  TYR39       0.0417
     10  CE2       51.4750   37.3390  101.6520 C.ar   39  TYR39       0.0417
     11  CZ        50.3380   36.6510  102.0390 C.ar   39  TYR39       0.1957
     12  OH        50.2400   36.0690  103.2870 O.3    39  TYR39      -0.2866
     13  N         45.8070   42.3380   94.4930 N.3    43  ARG43      -0.1245
     14  CA        46.3130   43.6050   94.9910 C.3    43  ARG43       0.1563
     15  C         46.2690   44.5290   93.8070 C.2    43  ARG43       0.2260
     16  O         45.6450   45.5830   93.8840 O.2    43  ARG43      -0.2867
     17  CB        47.7400   43.4670   95.5130 C.3    43  ARG43       0.0307
     18  CG        47.8410   42.5560   96.7330 C.3    43  ARG43       0.0489
     19  CD        47.3380   43.2490   98.0090 C.3    43  ARG43       0.2205
     20  NE        47.3770   42.3910   99.1990 N.pl3  43  ARG43      -0.0865
     21  CZ        48.4800   41.9030   99.7770 C.cat  43  ARG43       0.5346
     22  NH1       49.6910   42.1650   99.3010 N.pl3  43  ARG43       0.1354
     23  NH2       48.3720   41.1360  100.8510 N.pl3  43  ARG43       0.1354
     24  N         58.2560   40.4580   96.5550 N.3    75  TRP75      -0.1241
     25  CA        58.4980   40.3120   97.9870 C.3    75  TRP75       0.1605
     26  C         59.9740   40.2010   98.3600 C.2    75  TRP75       0.2264
     27  O         60.3320   39.4990   99.3120 O.2    75  TRP75      -0.2867
     28  CB        57.7410   39.0850   98.4850 C.3    75  TRP75       0.0550
     29  CG        57.4360   39.0630   99.9620 C.ar   75  TRP75       0.0003
     30  CD1       58.1860   38.4980  100.9550 C.ar   75  TRP75       0.0946
     31  CD2       56.2540   39.5630  100.5930 C.ar   75  TRP75       0.0152
     32  NE1       57.5340   38.6080  102.1650 N.ar   75  TRP75      -0.2442
     33  CE2       56.3450   39.2570  101.9630 C.ar   75  TRP75       0.0810
     34  CE3       55.1240   40.2360  100.1290 C.ar   75  TRP75       0.0012
     35  CZ2       55.3530   39.6040  102.8660 C.ar   75  TRP75       0.0191
     36  CZ3       54.1430   40.5790  101.0240 C.ar   75  TRP75       0.0001
     37  CH2       54.2580   40.2630  102.3750 C.ar   75  TRP75       0.0015
     38  N         54.8900   45.0650  100.7230 N.3   103  GLY103     -0.1210
     39  CA        54.3100   44.2330  101.7700 C.3   103  GLY103      0.1956
     40  C         55.1250   43.9780  103.0300 C.2   103  GLY103      0.2613
     41  O         54.7660   44.4270  104.1200 O.2   103  GLY103     -0.2717
     42  N         56.2210   43.2460  102.8800 N.am  104  SER104     -0.1938
     43  CA        57.1010   42.9030  103.9910 C.3   104  SER104      0.2055
     44  C         57.7790   44.0940  104.6530 C.2   104  SER104      0.2644
     45  O         58.3690   44.9310  103.9770 O.2   104  SER104     -0.2714
     46  CB        58.1760   41.9350  103.4940 C.3   104  SER104      0.2130
     47  OG        59.1880   41.7380  104.4600 O.3   104  SER104     -0.2179
     48  N         57.7070   44.1550  105.9780 N.am  105  SER105     -0.1935
     49  CA        58.3370   45.2340  106.7370 C.3   105  SER105      0.2055
     50  C         59.8510   45.3140  106.5120 C.2   105  SER105      0.2643
     51  O         60.4260   46.3960  106.4080 O.2   105  SER105     -0.2714
     52  CB        58.0550   45.0400  108.2210 C.3   105  SER105      0.2130
     53  OG        56.6580   45.0960  108.4660 O.3   105  SER105     -0.2179
     54  N         60.5000   44.1580  106.4700 N.am  106  SER106     -0.1949
     55  CA        61.9390   44.0890  106.2360 C.3   106  SER106      0.1924
     56  C         62.2210   44.8050  104.9140 C.2   106  SER106      0.2314
     57  O         63.2100   45.5170  104.7750 O.2   106  SER106     -0.2863
     58  CB        62.3680   42.6130  106.1590 C.3   106  SER106      0.2116
     59  OG        63.6670   42.4340  105.6080 O.3   106  SER106     -0.2180
     60  N         50.7330   46.5210  105.5380 N.3   126  SER126     -0.1202
     61  CA        50.9650   45.2470  106.2270 C.3   126  SER126      0.2020
     62  C         52.2880   45.1900  106.9820 C.2   126  SER126      0.2619
     63  O         52.5610   44.2260  107.6970 O.2   126  SER126     -0.2717
     64  CB        50.9440   44.1080  105.2160 C.3   126  SER126      0.2103
     65  OG        51.8690   44.3690  104.1670 O.3   126  SER126     -0.2182
     66  N         53.1160   46.2110  106.8020 N.am  127  ALA127     -0.1965
     67  CA        54.4180   46.2650  107.4560 C.3   127  ALA127      0.1728
     68  C         54.2860   46.8500  108.8430 C.2   127  ALA127      0.2617
     69  O         54.3410   48.0670  108.9970 O.2   127  ALA127     -0.2715
     70  CB        55.3640   47.1130  106.6370 C.3   127  ALA127      0.0334
     71  N         54.1380   45.9880  109.8490 N.am  128  THR128     -0.1937
     72  CA        53.9600   46.4510  111.2270 C.3   128  THR128      0.2028
     73  C         55.1750   46.5820  112.1350 C.2   128  THR128      0.2642
     74  O         55.0470   47.1380  113.2270 O.2   128  THR128     -0.2714
     75  CB        52.9440   45.5780  111.9940 C.3   128  THR128      0.1808
     76  OG1       53.4240   44.2330  112.0730 O.3   128  THR128     -0.2208
     77  CG2       51.6040   45.5930  111.3000 C.3   128  THR128      0.0379
     78  N         56.3370   46.0910  111.7080 N.am  129  SER129     -0.1949
     79  CA        57.5370   46.1630  112.5480 C.3   129  SER129      0.1924
     80  C         57.6020   47.4770  113.3390 C.2   129  SER129      0.2314
     81  O         57.0920   48.5180  112.8900 O.2   129  SER129     -0.2863
     82  CB        58.8040   45.9610  111.7070 C.3   129  SER129      0.2116
     83  OG        58.7160   46.6760  110.4930 O.3   129  SER129     -0.2180
     84  N         53.4930   46.6820  115.9990 N.3   148  ASP148     -0.1239
     85  CA        53.3590   45.5120  116.8600 C.3   148  ASP148      0.1674
     86  C         53.3890   45.8960  118.3360 C.2   148  ASP148      0.2266
     87  O         53.0990   45.0760  119.2140 O.2   148  ASP148     -0.2867
     88  CB        54.4380   44.4780  116.5310 C.3   148  ASP148      0.1410
     89  CG        54.3220   43.9780  115.1050 C.2   148  ASP148      0.3668
     90  OD1       53.2190   44.1440  114.5210 O.co2 148  ASP148     -0.2456
     91  OD2       55.3180   43.4270  114.5780 O.co2 148  ASP148     -0.2456
     92  N         61.0910   40.6830  114.4000 N.3   176  TYR176     -0.1241
     93  CA        59.6750   40.5590  114.7350 C.3   176  TYR176      0.1605
     94  C         59.4720   40.0670  116.1640 C.2   176  TYR176      0.2264
     95  O         59.0120   40.8120  117.0350 O.2   176  TYR176     -0.2867
     96  CB        58.9930   39.5890  113.7950 C.3   176  TYR176      0.0534
     97  CG        57.6000   39.2380  114.2330 C.ar  176  TYR176     -0.0201
     98  CD1       56.6480   40.2230  114.4510 C.ar  176  TYR176     -0.0009
     99  CD2       57.2080   37.9240  114.3500 C.ar  176  TYR176     -0.0009
    100  CE1       55.3320   39.8940  114.7640 C.ar  176  TYR176      0.0417
    101  CE2       55.8970   37.5870  114.6610 C.ar  176  TYR176      0.0417
    102  CZ        54.9690   38.5710  114.8630 C.ar  176  TYR176      0.1957
    103  OH        53.6700   38.2260  115.1470 O.3   176  TYR176     -0.2866
    104  N         56.2480   33.2730  115.4640 N.3   232  GLU232     -0.1245
    105  CA        55.9720   33.1920  114.0350 C.3   232  GLU232      0.1567
    106  C         55.1320   31.9460  113.8970 C.2   232  GLU232      0.2260
    107  O         55.2340   31.0380  114.7250 O.2   232  GLU232     -0.2867
    108  CB        57.2480   33.0090  113.2160 C.3   232  GLU232      0.0388
    109  CG        58.1520   34.2270  113.1560 C.3   232  GLU232      0.1160
    110  CD        59.3020   34.0550  112.1690 C.2   232  GLU232      0.3649
    111  OE1       60.1270   34.9870  112.0400 O.co2 232  GLU232     -0.2457
    112  OE2       59.3820   32.9880  111.5210 O.co2 232  GLU232     -0.2457
    113  N         50.0040   37.7080  116.1040 N.3   258  ASP258     -0.1225
    114  CA        49.3570   37.5010  114.8090 C.3   258  ASP258      0.1805
    115  C         50.1120   36.5320  113.9140 C.2   258  ASP258      0.2598
    116  O         49.5540   35.9880  112.9670 O.2   258  ASP258     -0.2718
    117  CB        49.0930   38.8380  114.0920 C.3   258  ASP258      0.1424
    118  CG        50.3130   39.4200  113.4640 C.2   258  ASP258      0.3668
    119  OD1       51.3980   39.3210  114.0620 O.co2 258  ASP258     -0.2456
    120  OD2       50.1780   39.9990  112.3710 O.co2 258  ASP258     -0.2456
    121  N         51.3750   36.2850  114.2190 N.am  259  GLY259     -0.1957
    122  CA        52.1030   35.3260  113.4090 C.3   259  GLY259      0.1869
    123  C         51.2820   34.0440  113.2960 C.2   259  GLY259      0.2309
    124  O         51.3100   33.3540  112.2810 O.2   259  GLY259     -0.2863
    125  N         45.6110   31.2830  110.9130 N.3   263  ARG263     -0.1245
    126  CA        46.2250   30.4800  109.8370 C.3   263  ARG263      0.1563
    127  C         45.8890   28.9930  109.9850 C.2   263  ARG263      0.2260
    128  O         46.2630   28.3530  110.9730 O.2   263  ARG263     -0.2867
    129  CB        47.7570   30.6470  109.8450 C.3   263  ARG263      0.0307
    130  CG        48.2490   31.9990  109.3500 C.3   263  ARG263      0.0489
    131  CD        49.7410   32.2030  109.5810 C.3   263  ARG263      0.2205
    132  NE        50.6190   31.2910  108.8470 N.pl3 263  ARG263     -0.0865
    133  CZ        51.9510   31.3650  108.8870 C.cat 263  ARG263      0.5346
    134  NH1       52.5460   32.2980  109.6160 N.pl3 263  ARG263      0.1354
    135  NH2       52.7010   30.5160  108.2000 N.pl3 263  ARG263      0.1354
    136  N         44.0590   40.7940  103.6990 N.3   349  LYS349     -0.1245
    137  CA        44.4720   42.1840  103.9140 C.3   349  LYS349      0.1561
    138  C         43.9070   43.2470  102.9570 C.2   349  LYS349      0.2260
    139  O         44.3670   44.3960  102.9590 O.2   349  LYS349     -0.2867
    140  CB        46.0120   42.2710  103.8930 C.3   349  LYS349      0.0271
    141  CG        46.7340   41.4530  104.9780 C.3   349  LYS349      0.0035
    142  CD        46.3950   41.9330  106.4000 C.3   349  LYS349      0.0206
    143  CE        47.1130   41.1040  107.4710 C.3   349  LYS349      0.1093
    144  NZ        48.6030   41.2330  107.4350 N.3   349  LYS349     -0.1314
@<TRIPOS>BOND
     1    15    16    2
     2    15    14    1
     3    13    14    1
     4    14    17    1
     5    17    18    1
     6     3     4    2
     7     3     2    1
     8    24    25    1
     9    18    19    1
    10     1     2    1
    11     2     5    1
    12    25    26    1
    13    25    28    1
    14    19    20    1
    15     5     6    1
    16    26    27    2
    17    28    29    1
    18    20    21    2
    19    22    21    1
    20     6     7   ar
    21     6     8   ar
    22    21    23    1
    23     7     9   ar
    24    29    31   ar
    25    29    30   ar
    26    34    31   ar
    27    34    36   ar
    28     8    10   ar
    29    31    33   ar
    30    38    39    1
    31    30    32   ar
    32    36    37   ar
    33     9    11   ar
    34    10    11   ar
    35    39    40    1
    36    33    32   ar
    37    33    35   ar
    38    11    12    1
    39    37    35   ar
    40    42    40   am
    41    42    43    1
    42   138   139    2
    43   138   137    1
    44    40    41    2
    45    46    43    1
    46    46    47    1
    47   136   137    1
    48   140   137    1
    49   140   141    1
    50    45    44    2
    51    43    44    1
    52    65    64    1
    53    44    48   am
    54    57    56    2
    55    56    55    1
    56   141   142    1
    57    64    61    1
    58    60    61    1
    59    59    58    1
    60    48    49    1
    61    58    55    1
    62    61    62    1
    63    55    54    1
    64   142   143    1
    65    51    50    2
    66    54    50   am
    67    50    49    1
    68    70    67    1
    69    49    52    1
    70    66    62   am
    71    66    67    1
    72    62    63    2
    73   144   143    1
    74    67    68    1
    75   135   133    1
    76    52    53    1
    77    68    69    2
    78    68    71   am
    79   132   133    2
    80   132   131    1
    81   133   134    1
    82   130   131    1
    83   130   129    1
    84   126   129    1
    85   126   127    1
    86   126   125    1
    87    71    72    1
    88   127   128    2
    89    83    82    1
    90    72    75    1
    91    72    73    1
    92    77    75    1
    93   112   110   ar
    94    82    79    1
    95    78    73   am
    96    78    79    1
    97    75    76    1
    98   111   110   ar
    99    73    74    2
   100   110   109    1
   101   124   123    2
   102   120   118   ar
   103    79    80    1
   104    81    80    2
   105   116   115    2
   106   109   108    1
   107   108   105    1
   108   123   122    1
   109   122   121    1
   110   118   119   ar
   111   118   117    1
   112    96    97    1
   113    96    93    1
   114   106   105    1
   115   106   107    2
   116   115   121   am
   117   115   114    1
   118   105   104    1
   119   117   114    1
   120    97    99   ar
   121    97    98   ar
   122    99   101   ar
   123    92    93    1
   124    98   100   ar
   125    90    89   ar
   126    91    89   ar
   127   101   102   ar
   128    93    94    1
   129   100   102   ar
   130   114   113    1
   131   102   103    1
   132    89    88    1
   133    84    85    1
   134    94    95    2
   135    88    85    1
   136    85    86    1
   137    86    87    2
