@<TRIPOS>MOLECULE
tmp/1isvB02.pdb
 72 68 0 0 0
SMALL
GASTEIGER

@<TRIPOS>ATOM
      1  N         41.4520   60.0330   65.1130 N.3   408  ASP408     -0.1225
      2  CA        42.2920   61.0980   64.5950 C.3   408  ASP408      0.1805
      3  C         41.7490   61.7950   63.3470 C.2   408  ASP408      0.2598
      4  O         41.3330   61.1430   62.3850 O.2   408  ASP408     -0.2718
      5  CB        43.6750   60.5110   64.3070 C.3   408  ASP408      0.1424
      6  CG        44.6650   61.5470   63.8510 C.2   408  ASP408      0.3668
      7  OD1       44.4390   62.1620   62.7870 O.co2 408  ASP408     -0.2456
      8  OD2       45.6720   61.7410   64.5590 O.co2 408  ASP408     -0.2456
      9  N         41.7580   63.1250   63.3700 N.am  409  ALA409     -0.1966
     10  CA        41.2960   63.9100   62.2290 C.3   409  ALA409      0.1728
     11  C         42.4130   63.8800   61.1920 C.2   409  ALA409      0.2616
     12  O         43.5070   64.3900   61.4340 O.2   409  ALA409     -0.2715
     13  CB        41.0080   65.3420   62.6540 C.3   409  ALA409      0.0334
     14  N         42.1320   63.2700   60.0450 N.am  410  VAL410     -0.1963
     15  CA        43.1080   63.1310   58.9690 C.3   410  VAL410      0.1727
     16  C         43.9570   64.3730   58.7140 C.2   410  VAL410      0.2617
     17  O         43.4370   65.4780   58.5550 O.2   410  VAL410     -0.2715
     18  CB        42.4190   62.7250   57.6480 C.3   410  VAL410      0.0290
     19  CG1       43.4560   62.5460   56.5530 C.3   410  VAL410      0.0023
     20  CG2       41.6410   61.4360   57.8480 C.3   410  VAL410      0.0023
     21  N         45.2720   64.1700   58.6800 N.am  411  GLY411     -0.1940
     22  CA        46.2020   65.2580   58.4390 C.3   411  GLY411      0.2014
     23  C         45.9990   66.4620   59.3370 C.2   411  GLY411      0.2639
     24  O         46.3920   67.5760   58.9930 O.2   411  GLY411     -0.2714
     25  N         45.3860   66.2430   60.4940 N.am  412  GLY412     -0.1954
     26  CA        45.1500   67.3420   61.4090 C.3   412  GLY412      0.1869
     27  C         44.1410   68.3300   60.8570 C.2   412  GLY412      0.2309
     28  O         43.9140   69.3860   61.4450 O.2   412  GLY412     -0.2863
     29  N         40.0700   59.0960   61.1630 N.3   421  GLN421     -0.1245
     30  CA        40.8070   57.8400   61.0560 C.3   421  GLN421      0.1566
     31  C         41.3420   57.4410   62.4310 C.2   421  GLN421      0.2260
     32  O         41.1330   58.1470   63.4170 O.2   421  GLN421     -0.2867
     33  CB        41.9980   58.0220   60.1170 C.3   421  GLN421      0.0367
     34  CG        43.1930   58.6800   60.8080 C.3   421  GLN421      0.0905
     35  CD        44.2810   59.1330   59.8520 C.2   421  GLN421      0.2608
     36  OE1       44.6030   58.4470   58.8820 O.2   421  GLN421     -0.2717
     37  NE2       44.8680   60.2910   60.1380 N.am  421  GLN421     -0.0878
     38  N         44.7930   56.4260   64.6930 N.3   423  TYR423     -0.1241
     39  CA        46.2120   56.7500   64.6480 C.3   423  TYR423      0.1605
     40  C         46.7780   56.7680   66.0550 C.2   423  TYR423      0.2264
     41  O         46.0820   57.1450   66.9990 O.2   423  TYR423     -0.2867
     42  CB        46.4350   58.1160   63.9960 C.3   423  TYR423      0.0534
     43  CG        47.7960   58.2490   63.3570 C.ar  423  TYR423     -0.0201
     44  CD1       48.0250   57.7840   62.0620 C.ar  423  TYR423     -0.0009
     45  CD2       48.8700   58.7950   64.0600 C.ar  423  TYR423     -0.0009
     46  CE1       49.2880   57.8580   61.4820 C.ar  423  TYR423      0.0417
     47  CE2       50.1380   58.8730   63.4900 C.ar  423  TYR423      0.0417
     48  CZ        50.3380   58.4020   62.2000 C.ar  423  TYR423      0.1957
     49  OH        51.5860   58.4750   61.6290 O.3   423  TYR423     -0.2866
     50  N         48.5340   60.8330   70.3250 N.3   426  SER426     -0.1217
     51  CA        49.6010   61.8200   70.4270 C.3   426  SER426      0.1889
     52  C         49.3080   62.9460   71.4120 C.2   426  SER426      0.2288
     53  O         50.1900   63.7460   71.7190 O.2   426  SER426     -0.2866
     54  CB        49.8450   62.4320   69.0530 C.3   426  SER426      0.2089
     55  OG        48.6620   63.0590   68.5860 O.3   426  SER426     -0.2183
     56  N         43.8280   67.3050   67.5620 N.3   430  ASN430     -0.1225
     57  CA        43.0200   66.6870   66.5200 C.3   430  ASN430      0.1785
     58  C         42.5940   65.2910   66.9630 C.2   430  ASN430      0.2597
     59  O         42.0170   64.5270   66.1910 O.2   430  ASN430     -0.2718
     60  CB        43.8140   66.6120   65.2130 C.3   430  ASN430      0.1169
     61  CG        45.0100   65.6900   65.3090 C.2   430  ASN430      0.2627
     62  OD1       45.7860   65.7550   66.2630 O.2   430  ASN430     -0.2716
     63  ND2       45.1710   64.8290   64.3130 N.am  430  ASN430     -0.0877
     64  N         42.8880   64.9730   68.2200 N.am  431  GLN431     -0.1979
     65  CA        42.5420   63.6820   68.8000 C.3   431  GLN431      0.1601
     66  C         41.8030   63.8590   70.1220 C.2   431  GLN431      0.2287
     67  O         41.4340   62.8820   70.7730 O.2   431  GLN431     -0.2864
     68  CB        43.8040   62.8470   69.0230 C.3   431  GLN431      0.0394
     69  CG        44.2930   62.1190   67.7870 C.3   431  GLN431      0.0908
     70  CD        45.5660   61.3440   68.0430 C.2   431  GLN431      0.2608
     71  OE1       45.7220   60.7140   69.0870 O.2   431  GLN431     -0.2717
     72  NE2       46.4820   61.3750   67.0840 N.am  431  GLN431     -0.0878
@<TRIPOS>BOND
     1    19    18    1
     2    18    20    1
     3    18    15    1
     4    22    21    1
     5    22    23    1
     6    17    16    2
     7    21    16   am
     8    16    15    1
     9    36    35    2
    10    15    14    1
    11    24    23    2
    12    23    25   am
    13    35    37   am
    14    35    34    1
    15    14    11   am
    16    33    34    1
    17    33    30    1
    18    25    26    1
    19    27    26    1
    20    27    28    2
    21    30    29    1
    22    30    31    1
    23    11    12    2
    24    11    10    1
    25    46    44   ar
    26    46    48   ar
    27    49    48    1
    28    44    43   ar
    29    48    47   ar
    30    10    13    1
    31    10     9    1
    32     4     3    2
    33    31    32    2
    34     7     6   ar
    35     3     9   am
    36     3     2    1
    37    43    42    1
    38    43    45   ar
    39    47    45   ar
    40     6     5    1
    41     6     8   ar
    42    42    39    1
    43     5     2    1
    44    63    61   am
    45     2     1    1
    46    39    38    1
    47    39    40    1
    48    60    61    1
    49    60    57    1
    50    61    62    2
    51    40    41    2
    52    59    58    2
    53    57    58    1
    54    57    56    1
    55    58    64   am
    56    72    70   am
    57    69    70    1
    58    69    68    1
    59    70    71    2
    60    64    65    1
    61    55    54    1
    62    65    68    1
    63    65    66    1
    64    54    51    1
    65    66    67    2
    66    50    51    1
    67    51    52    1
    68    52    53    2
