@<TRIPOS>MOLECULE
tmp/1iswA00.pdb
 144 141 0 0 0
SMALL
GASTEIGER

@<TRIPOS>ATOM
      1  N         32.6370   22.6470   51.3990 N.3    44  GLU44      -0.1231
      2  CA        33.5050   23.7350   51.8460 C.3    44  GLU44       0.1699
      3  C         34.9420   23.6540   51.3210 C.2    44  GLU44       0.2592
      4  O         35.5690   24.6830   51.0790 O.2    44  GLU44      -0.2718
      5  CB        33.5110   23.8320   53.3790 C.3    44  GLU44       0.0402
      6  CG        34.3660   24.9900   53.9020 C.3    44  GLU44       0.1161
      7  CD        34.1840   25.2580   55.3870 C.2    44  GLU44       0.3649
      8  OE1       33.8450   24.3100   56.1290 O.co2  44  GLU44      -0.2457
      9  OE2       34.3980   26.4180   55.8150 O.co2  44  GLU44      -0.2457
     10  N         35.4540   22.4410   51.1190 N.am   45  ASN45      -0.1974
     11  CA        36.8260   22.2710   50.6330 C.3    45  ASN45       0.1688
     12  C         37.0650   20.9760   49.8720 C.2    45  ASN45       0.2292
     13  O         38.0320   20.8700   49.1190 O.2    45  ASN45      -0.2864
     14  CB        37.8140   22.2790   51.8050 C.3    45  ASN45       0.1181
     15  CG        37.9470   23.6270   52.4540 C.2    45  ASN45       0.2629
     16  OD1       38.4340   24.5770   51.8440 O.2    45  ASN45      -0.2716
     17  ND2       37.5170   23.7230   53.7040 N.am   45  ASN45      -0.0877
     18  N         37.8120   21.0190   45.9540 N.3    48  LYS48      -0.1245
     19  CA        38.7830   21.9750   45.4520 C.3    48  LYS48       0.1561
     20  C         39.9200   21.2470   44.7310 C.2    48  LYS48       0.2260
     21  O         40.0220   20.0200   44.7860 O.2    48  LYS48      -0.2867
     22  CB        39.3010   22.8480   46.6030 C.3    48  LYS48       0.0271
     23  CG        38.2270   23.8060   47.1380 C.3    48  LYS48       0.0035
     24  CD        38.7070   24.6850   48.2850 C.3    48  LYS48       0.0206
     25  CE        37.5920   25.6260   48.7280 C.3    48  LYS48       0.1093
     26  NZ        37.9370   26.4270   49.9310 N.3    48  LYS48      -0.1314
     27  N         32.5270   23.2550   43.7400 N.3    81  HIS81      -0.1241
     28  CA        33.4480   24.3430   44.0640 C.3    81  HIS81       0.1621
     29  C         34.8430   23.8050   44.4020 C.2    81  HIS81       0.2264
     30  O         34.9790   23.0690   45.3740 O.2    81  HIS81      -0.2867
     31  CB        32.8740   25.0890   45.2700 C.3    81  HIS81       0.0745
     32  CG        33.7220   26.2190   45.7600 C.ar   81  HIS81       0.0817
     33  ND1       33.7800   27.4380   45.1220 N.ar   81  HIS81      -0.2268
     34  CD2       34.5140   26.3260   46.8530 C.ar   81  HIS81       0.1154
     35  CE1       34.5700   28.2500   45.8030 C.ar   81  HIS81       0.1986
     36  NE2       35.0280   27.6000   46.8580 N.ar   81  HIS81      -0.2212
     37  N         41.4720   27.8250   39.9930 N.3    85  TRP85      -0.1241
     38  CA        41.6910   28.8750   40.9790 C.3    85  TRP85       0.1605
     39  C         43.1720   28.9800   41.3230 C.2    85  TRP85       0.2264
     40  O         43.8850   27.9740   41.3250 O.2    85  TRP85      -0.2867
     41  CB        40.8560   28.5070   42.2100 C.3    85  TRP85       0.0550
     42  CG        40.7810   29.4830   43.3260 C.ar   85  TRP85       0.0003
     43  CD1       40.9200   30.8380   43.2540 C.ar   85  TRP85       0.0946
     44  CD2       40.4210   29.1860   44.6820 C.ar   85  TRP85       0.0152
     45  NE1       40.6620   31.4040   44.4830 N.ar   85  TRP85      -0.2442
     46  CE2       40.3520   30.4120   45.3760 C.ar   85  TRP85       0.0810
     47  CE3       40.1430   27.9970   45.3760 C.ar   85  TRP85       0.0012
     48  CZ2       40.0140   30.4880   46.7370 C.ar   85  TRP85       0.0191
     49  CZ3       39.8060   28.0710   46.7300 C.ar   85  TRP85       0.0001
     50  CH2       39.7450   29.3100   47.3930 C.ar   85  TRP85       0.0015
     51  N         44.6280   27.4090   46.8510 N.3    88  GLN88      -0.1245
     52  CA        44.4160   26.0130   47.2310 C.3    88  GLN88       0.1566
     53  C         44.6930   24.9910   46.1280 C.2    88  GLN88       0.2260
     54  O         43.9230   24.0420   45.9350 O.2    88  GLN88      -0.2867
     55  CB        42.9990   25.8210   47.7890 C.3    88  GLN88       0.0367
     56  CG        42.9040   26.0480   49.2970 C.3    88  GLN88       0.0905
     57  CD        41.4930   25.8810   49.8430 C.2    88  GLN88       0.2608
     58  OE1       40.6240   26.7280   49.6320 O.2    88  GLN88      -0.2717
     59  NE2       41.2610   24.7760   50.5480 N.am   88  GLN88      -0.0878
     60  N         37.3880   30.7520   39.7720 N.3   127  ASN127     -0.1225
     61  CA        37.1770   31.4820   41.0090 C.3   127  ASN127      0.1785
     62  C         38.2120   32.5810   41.2410 C.2   127  ASN127      0.2597
     63  O         39.4100   32.3710   41.0540 O.2   127  ASN127     -0.2718
     64  CB        37.1930   30.4890   42.1800 C.3   127  ASN127      0.1169
     65  CG        36.6540   31.0860   43.4640 C.2   127  ASN127      0.2627
     66  OD1       35.5690   31.6670   43.4800 O.2   127  ASN127     -0.2716
     67  ND2       37.4050   30.9360   44.5530 N.am  127  ASN127     -0.0877
     68  N         37.7290   33.7610   41.6220 N.am  128  GLU128     -0.1979
     69  CA        38.5700   34.9190   41.9470 C.3   128  GLU128      0.1602
     70  C         39.6900   35.2480   40.9540 C.2   128  GLU128      0.2287
     71  O         40.8710   35.2710   41.3230 O.2   128  GLU128     -0.2864
     72  CB        39.1650   34.7050   43.3410 C.3   128  GLU128      0.0415
     73  CG        38.2760   33.8440   44.2270 C.3   128  GLU128      0.1163
     74  CD        38.7650   33.7290   45.6520 C.2   128  GLU128      0.3649
     75  OE1       39.9830   33.5400   45.8660 O.co2 128  GLU128     -0.2457
     76  OE2       37.9180   33.8080   46.5670 O.co2 128  GLU128     -0.2457
     77  N         34.7170   37.4680   44.8670 N.3   172  TYR172     -0.1241
     78  CA        34.3140   38.2730   46.0130 C.3   172  TYR172      0.1605
     79  C         34.6080   39.7340   45.6810 C.2   172  TYR172      0.2264
     80  O         35.3340   40.0270   44.7340 O.2   172  TYR172     -0.2867
     81  CB        35.0860   37.8580   47.2660 C.3   172  TYR172      0.0534
     82  CG        36.5820   38.0080   47.1340 C.ar  172  TYR172     -0.0201
     83  CD1       37.3460   37.0440   46.4730 C.ar  172  TYR172     -0.0009
     84  CD2       37.2300   39.1360   47.6300 C.ar  172  TYR172     -0.0009
     85  CE1       38.7180   37.2040   46.3080 C.ar  172  TYR172      0.0417
     86  CE2       38.6050   39.3080   47.4680 C.ar  172  TYR172      0.0417
     87  CZ        39.3400   38.3430   46.8060 C.ar  172  TYR172      0.1957
     88  OH        40.6900   38.5320   46.6150 O.3   172  TYR172     -0.2866
     89  N         30.1870   35.8630   45.9300 N.3   205  GLN205     -0.1245
     90  CA        30.4900   35.2690   47.2270 C.3   205  GLN205      0.1566
     91  C         29.7740   35.9650   48.3690 C.2   205  GLN205      0.2260
     92  O         29.3180   35.3170   49.3130 O.2   205  GLN205     -0.2867
     93  CB        32.0010   35.2590   47.4660 C.3   205  GLN205      0.0367
     94  CG        32.7530   34.3670   46.4860 C.3   205  GLN205      0.0905
     95  CD        34.2260   34.2770   46.8060 C.2   205  GLN205      0.2608
     96  OE1       34.6970   34.8940   47.7650 O.2   205  GLN205     -0.2717
     97  NE2       34.9670   33.5070   46.0090 N.am  205  GLN205     -0.0878
     98  N         30.8910   38.1860   50.8490 N.3   207  HIS207     -0.1241
     99  CA        31.5140   38.1590   52.1670 C.3   207  HIS207      0.1621
    100  C         31.5370   39.6170   52.6130 C.2   207  HIS207      0.2264
    101  O         32.4620   40.3560   52.2810 O.2   207  HIS207     -0.2867
    102  CB        32.9400   37.6040   52.0850 C.3   207  HIS207      0.0745
    103  CG        33.0020   36.1220   51.8800 C.ar  207  HIS207      0.0817
    104  ND1       32.5490   35.2200   52.8210 N.ar  207  HIS207     -0.2268
    105  CD2       33.4700   35.3830   50.8460 C.ar  207  HIS207      0.1154
    106  CE1       32.7340   33.9900   52.3750 C.ar  207  HIS207      0.1986
    107  NE2       33.2920   34.0610   51.1780 N.ar  207  HIS207     -0.2212
    108  N         28.5880   32.5430   48.8900 N.3   236  GLU236     -0.1245
    109  CA        29.2700   32.3300   50.1670 C.3   236  GLU236      0.1567
    110  C         28.9430   33.3980   51.1990 C.2   236  GLU236      0.2260
    111  O         29.8240   33.9130   51.8860 O.2   236  GLU236     -0.2867
    112  CB        30.7740   32.2860   49.9060 C.3   236  GLU236      0.0388
    113  CG        31.1460   31.2280   48.8760 C.3   236  GLU236      0.1160
    114  CD        32.5780   31.3200   48.4080 C.2   236  GLU236      0.3649
    115  OE1       33.4310   31.7970   49.1820 O.co2 236  GLU236     -0.2457
    116  OE2       32.8500   30.8950   47.2680 O.co2 236  GLU236     -0.2457
    117  N         27.9020   30.7520   53.8720 N.3   266  TRP266     -0.1241
    118  CA        29.1230   29.9700   54.0100 C.3   266  TRP266      0.1605
    119  C         29.3630   29.3380   55.3850 C.2   266  TRP266      0.2264
    120  O         30.2880   29.7220   56.1060 O.2   266  TRP266     -0.2867
    121  CB        30.3190   30.8350   53.5890 C.3   266  TRP266      0.0550
    122  CG        31.5060   30.0360   53.1780 C.ar  266  TRP266      0.0003
    123  CD1       32.6990   29.9420   53.8330 C.ar  266  TRP266      0.0946
    124  CD2       31.6080   29.1900   52.0310 C.ar  266  TRP266      0.0152
    125  NE1       33.5390   29.0880   53.1620 N.ar  266  TRP266     -0.2442
    126  CE2       32.8950   28.6120   52.0520 C.ar  266  TRP266      0.0810
    127  CE3       30.7340   28.8610   50.9850 C.ar  266  TRP266      0.0012
    128  CZ2       33.3340   27.7220   51.0650 C.ar  266  TRP266      0.0191
    129  CZ3       31.1690   27.9770   50.0040 C.ar  266  TRP266      0.0001
    130  CH2       32.4620   27.4170   50.0530 C.ar  266  TRP266      0.0015
    131  N         34.6040   29.9920   58.9070 N.3   274  TRP274     -0.1241
    132  CA        36.0190   30.2080   58.6730 C.3   274  TRP274      0.1605
    133  C         36.3740   31.5500   59.3160 C.2   274  TRP274      0.2264
    134  O         37.5450   31.8580   59.5160 O.2   274  TRP274     -0.2867
    135  CB        36.3070   30.2290   57.1660 C.3   274  TRP274      0.0550
    136  CG        35.6890   31.3880   56.4380 C.ar  274  TRP274      0.0003
    137  CD1       34.4100   31.8600   56.5720 C.ar  274  TRP274      0.0946
    138  CD2       36.3190   32.2110   55.4480 C.ar  274  TRP274      0.0152
    139  NE1       34.2070   32.9280   55.7250 N.ar  274  TRP274     -0.2442
    140  CE2       35.3610   33.1650   55.0230 C.ar  274  TRP274      0.0810
    141  CE3       37.5990   32.2370   54.8770 C.ar  274  TRP274      0.0012
    142  CZ2       35.6450   34.1320   54.0520 C.ar  274  TRP274      0.0191
    143  CZ3       37.8820   33.1980   53.9110 C.ar  274  TRP274      0.0001
    144  CH2       36.9070   34.1330   53.5080 C.ar  274  TRP274      0.0015
@<TRIPOS>BOND
     1    60    61    1
     2    37    38    1
     3    70    71    2
     4    70    69    1
     5    38    39    1
     6    38    41    1
     7    61    62    1
     8    61    64    1
     9    63    62    2
    10    62    68   am
    11    39    40    2
    12    68    69    1
    13    69    72    1
    14    64    65    1
    15    41    42    1
    16    43    42   ar
    17    43    45   ar
    18    42    44   ar
    19    72    73    1
    20    65    66    2
    21    65    67   am
    22    27    28    1
    23    28    29    1
    24    28    31    1
    25    73    74    1
    26    29    30    2
    27    45    46   ar
    28    44    46   ar
    29    44    47   ar
    30    20    21    2
    31    20    19    1
    32    80    79    2
    33    77    78    1
    34    33    32   ar
    35    33    35   ar
    36    31    32    1
    37    46    48   ar
    38    47    49   ar
    39    19    18    1
    40    19    22    1
    41    74    75   ar
    42    74    76   ar
    43    79    78    1
    44    32    34   ar
    45    35    36   ar
    46    89    90    1
    47    54    53    2
    48    97    95   am
    49    78    81    1
    50    53    52    1
    51    85    83   ar
    52    85    87   ar
    53    83    82   ar
    54    94    95    1
    55    94    93    1
    56    22    23    1
    57    88    87    1
    58    49    50   ar
    59    48    50   ar
    60    95    96    2
    61    87    86   ar
    62    51    52    1
    63    34    36   ar
    64    82    81    1
    65    82    84   ar
    66    23    24    1
    67    90    93    1
    68    90    91    1
    69    52    55    1
    70   116   114   ar
    71    86    84   ar
    72    55    56    1
    73    24    25    1
    74    91    92    2
    75   114   113    1
    76   114   115   ar
    77    25    26    1
    78   113   112    1
    79   108   109    1
    80    13    12    2
    81    56    57    1
    82    58    57    2
    83    57    59   am
    84    12    11    1
    85   112   109    1
    86   129   130   ar
    87   129   127   ar
    88   130   128   ar
    89   109   110    1
    90    11    10    1
    91    11    14    1
    92   105   107   ar
    93   105   103   ar
    94    98    99    1
    95   127   124   ar
    96   128   126   ar
    97     4     3    2
    98    10     3   am
    99   107   106   ar
   100   110   111    2
   101     3     2    1
   102     1     2    1
   103    14    15    1
   104    16    15    2
   105     2     5    1
   106   103   102    1
   107   103   104   ar
   108   124   126   ar
   109   124   122   ar
   110   126   125   ar
   111   102    99    1
   112    99   100    1
   113   101   100    2
   114   106   104   ar
   115    15    17   am
   116   125   123   ar
   117   122   121    1
   118   122   123   ar
   119     5     6    1
   120   144   143   ar
   121   144   142   ar
   122   121   118    1
   123   117   118    1
   124     6     7    1
   125   143   141   ar
   126   118   119    1
   127   142   140   ar
   128   141   138   ar
   129   140   138   ar
   130   140   139   ar
   131   119   120    2
   132     7     9   ar
   133     7     8   ar
   134   138   136   ar
   135   139   137   ar
   136   136   137   ar
   137   136   135    1
   138   135   132    1
   139   132   131    1
   140   132   133    1
   141   133   134    2
