@<TRIPOS>MOLECULE
tmp/1iswA01.pdb
 136 133 0 0 0
SMALL
GASTEIGER

@<TRIPOS>ATOM
      1  N         41.4720   27.8250   39.9930 N.3    85  TRP85      -0.1241
      2  CA        41.6910   28.8750   40.9790 C.3    85  TRP85       0.1605
      3  C         43.1720   28.9800   41.3230 C.2    85  TRP85       0.2264
      4  O         43.8850   27.9740   41.3250 O.2    85  TRP85      -0.2867
      5  CB        40.8560   28.5070   42.2100 C.3    85  TRP85       0.0550
      6  CG        40.7810   29.4830   43.3260 C.ar   85  TRP85       0.0003
      7  CD1       40.9200   30.8380   43.2540 C.ar   85  TRP85       0.0946
      8  CD2       40.4210   29.1860   44.6820 C.ar   85  TRP85       0.0152
      9  NE1       40.6620   31.4040   44.4830 N.ar   85  TRP85      -0.2442
     10  CE2       40.3520   30.4120   45.3760 C.ar   85  TRP85       0.0810
     11  CE3       40.1430   27.9970   45.3760 C.ar   85  TRP85       0.0012
     12  CZ2       40.0140   30.4880   46.7370 C.ar   85  TRP85       0.0191
     13  CZ3       39.8060   28.0710   46.7300 C.ar   85  TRP85       0.0001
     14  CH2       39.7450   29.3100   47.3930 C.ar   85  TRP85       0.0015
     15  N         37.7290   33.7610   41.6220 N.3   128  GLU128     -0.1245
     16  CA        38.5700   34.9190   41.9470 C.3   128  GLU128      0.1567
     17  C         39.6900   35.2480   40.9540 C.2   128  GLU128      0.2260
     18  O         40.8710   35.2710   41.3230 O.2   128  GLU128     -0.2867
     19  CB        39.1650   34.7050   43.3410 C.3   128  GLU128      0.0388
     20  CG        38.2760   33.8440   44.2270 C.3   128  GLU128      0.1160
     21  CD        38.7650   33.7290   45.6520 C.2   128  GLU128      0.3649
     22  OE1       39.9830   33.5400   45.8660 O.co2 128  GLU128     -0.2457
     23  OE2       37.9180   33.8080   46.5670 O.co2 128  GLU128     -0.2457
     24  N         42.3060   43.0910   43.6000 N.3   132  ASP132     -0.1239
     25  CA        41.6500   44.0750   44.4550 C.3   132  ASP132      0.1674
     26  C         42.3760   45.4150   44.4880 C.2   132  ASP132      0.2266
     27  O         42.0180   46.2840   45.2840 O.2   132  ASP132     -0.2867
     28  CB        41.5600   43.5640   45.8950 C.3   132  ASP132      0.1410
     29  CG        40.7940   42.2690   46.0160 C.2   132  ASP132      0.3668
     30  OD1       39.6050   42.2300   45.6320 O.co2 132  ASP132     -0.2456
     31  OD2       41.3900   41.2900   46.5090 O.co2 132  ASP132     -0.2456
     32  N         34.7170   37.4680   44.8670 N.3   172  TYR172     -0.1227
     33  CA        34.3140   38.2730   46.0130 C.3   172  TYR172      0.1736
     34  C         34.6080   39.7340   45.6810 C.2   172  TYR172      0.2595
     35  O         35.3340   40.0270   44.7340 O.2   172  TYR172     -0.2718
     36  CB        35.0860   37.8580   47.2660 C.3   172  TYR172      0.0548
     37  CG        36.5820   38.0080   47.1340 C.ar  172  TYR172     -0.0200
     38  CD1       37.3460   37.0440   46.4730 C.ar  172  TYR172     -0.0009
     39  CD2       37.2300   39.1360   47.6300 C.ar  172  TYR172     -0.0009
     40  CE1       38.7180   37.2040   46.3080 C.ar  172  TYR172      0.0417
     41  CE2       38.6050   39.3080   47.4680 C.ar  172  TYR172      0.0417
     42  CZ        39.3400   38.3430   46.8060 C.ar  172  TYR172      0.1957
     43  OH        40.6900   38.5320   46.6150 O.3   172  TYR172     -0.2866
     44  N         34.0520   40.6460   46.4660 N.am  173  ASN173     -0.1974
     45  CA        34.2370   42.0760   46.2330 C.3   173  ASN173      0.1688
     46  C         33.6950   42.5700   44.8840 C.2   173  ASN173      0.2292
     47  O         34.1110   43.6190   44.3920 O.2   173  ASN173     -0.2864
     48  CB        35.7150   42.4570   46.3790 C.3   173  ASN173      0.1181
     49  CG        36.1270   42.6270   47.8270 C.2   173  ASN173      0.2629
     50  OD1       37.2870   42.9040   48.1270 O.2   173  ASN173     -0.2716
     51  ND2       35.1710   42.4690   48.7370 N.am  173  ASN173     -0.0877
     52  N         32.5360   49.5630   42.3920 N.3   179  TRP179     -0.1241
     53  CA        33.8890   49.0140   42.4240 C.3   179  TRP179      0.1605
     54  C         34.4200   48.5760   41.0660 C.2   179  TRP179      0.2264
     55  O         33.7120   47.9600   40.2680 O.2   179  TRP179     -0.2867
     56  CB        33.9520   47.8480   43.4110 C.3   179  TRP179      0.0550
     57  CG        33.9300   48.2940   44.8370 C.ar  179  TRP179      0.0003
     58  CD1       33.1770   49.3020   45.3710 C.ar  179  TRP179      0.0946
     59  CD2       34.6860   47.7410   45.9190 C.ar  179  TRP179      0.0152
     60  NE1       33.4170   49.4110   46.7190 N.ar  179  TRP179     -0.2442
     61  CE2       34.3390   48.4650   47.0830 C.ar  179  TRP179      0.0810
     62  CE3       35.6230   46.7030   46.0210 C.ar  179  TRP179      0.0012
     63  CZ2       34.8980   48.1830   48.3370 C.ar  179  TRP179      0.0191
     64  CZ3       36.1770   46.4230   47.2670 C.ar  179  TRP179      0.0001
     65  CH2       35.8110   47.1610   48.4080 C.ar  179  TRP179      0.0015
     66  N         30.1870   35.8630   45.9300 N.3   205  GLN205     -0.1245
     67  CA        30.4900   35.2690   47.2270 C.3   205  GLN205      0.1566
     68  C         29.7740   35.9650   48.3690 C.2   205  GLN205      0.2260
     69  O         29.3180   35.3170   49.3130 O.2   205  GLN205     -0.2867
     70  CB        32.0010   35.2590   47.4660 C.3   205  GLN205      0.0367
     71  CG        32.7530   34.3670   46.4860 C.3   205  GLN205      0.0905
     72  CD        34.2260   34.2770   46.8060 C.2   205  GLN205      0.2608
     73  OE1       34.6970   34.8940   47.7650 O.2   205  GLN205     -0.2717
     74  NE2       34.9670   33.5070   46.0090 N.am  205  GLN205     -0.0878
     75  N         30.8910   38.1860   50.8490 N.3   207  HIS207     -0.1241
     76  CA        31.5140   38.1590   52.1670 C.3   207  HIS207      0.1621
     77  C         31.5370   39.6170   52.6130 C.2   207  HIS207      0.2264
     78  O         32.4620   40.3560   52.2810 O.2   207  HIS207     -0.2867
     79  CB        32.9400   37.6040   52.0850 C.3   207  HIS207      0.0745
     80  CG        33.0020   36.1220   51.8800 C.ar  207  HIS207      0.0817
     81  ND1       32.5490   35.2200   52.8210 N.ar  207  HIS207     -0.2268
     82  CD2       33.4700   35.3830   50.8460 C.ar  207  HIS207      0.1154
     83  CE1       32.7340   33.9900   52.3750 C.ar  207  HIS207      0.1986
     84  NE2       33.2920   34.0610   51.1780 N.ar  207  HIS207     -0.2212
     85  N         31.6620   42.8050   55.3500 N.3   209  ASN209     -0.1240
     86  CA        32.2620   43.2130   56.6220 C.3   209  ASN209      0.1653
     87  C         32.6030   44.6980   56.5250 C.2   209  ASN209      0.2266
     88  O         32.4040   45.3080   55.4770 O.2   209  ASN209     -0.2867
     89  CB        33.5280   42.3990   56.8970 C.3   209  ASN209      0.1155
     90  CG        34.4820   42.3910   55.7160 C.2   209  ASN209      0.2627
     91  OD1       34.7420   43.4270   55.1110 O.2   209  ASN209     -0.2716
     92  ND2       35.0140   41.2210   55.3910 N.am  209  ASN209     -0.0877
     93  N         35.3090   46.0870   56.1190 N.3   211  GLY211     -0.1210
     94  CA        36.3040   46.3170   55.0840 C.3   211  GLY211      0.1956
     95  C         35.6580   46.4720   53.7190 C.2   211  GLY211      0.2612
     96  O         36.0560   47.3150   52.9140 O.2   211  GLY211     -0.2717
     97  N         34.6600   45.6370   53.4520 N.am  212  SER212     -0.1952
     98  CA        33.9270   45.6790   52.1960 C.3   212  SER212      0.1924
     99  C         32.4720   45.4200   52.5570 C.2   212  SER212      0.2314
    100  O         31.9610   44.3060   52.4260 O.2   212  SER212     -0.2863
    101  CB        34.4620   44.6220   51.2250 C.3   212  SER212      0.2116
    102  OG        34.5910   43.3670   51.8620 O.3   212  SER212     -0.2180
    103  N         28.5880   32.5430   48.8900 N.3   236  GLU236     -0.1245
    104  CA        29.2700   32.3300   50.1670 C.3   236  GLU236      0.1567
    105  C         28.9430   33.3980   51.1990 C.2   236  GLU236      0.2260
    106  O         29.8240   33.9130   51.8860 O.2   236  GLU236     -0.2867
    107  CB        30.7740   32.2860   49.9060 C.3   236  GLU236      0.0388
    108  CG        31.1460   31.2280   48.8760 C.3   236  GLU236      0.1160
    109  CD        32.5780   31.3200   48.4080 C.2   236  GLU236      0.3649
    110  OE1       33.4310   31.7970   49.1820 O.co2 236  GLU236     -0.2457
    111  OE2       32.8500   30.8950   47.2680 O.co2 236  GLU236     -0.2457
    112  N         34.6040   29.9920   58.9070 N.3   274  TRP274     -0.1227
    113  CA        36.0190   30.2080   58.6730 C.3   274  TRP274      0.1737
    114  C         36.3740   31.5500   59.3160 C.2   274  TRP274      0.2595
    115  O         37.5450   31.8580   59.5160 O.2   274  TRP274     -0.2718
    116  CB        36.3070   30.2290   57.1660 C.3   274  TRP274      0.0564
    117  CG        35.6890   31.3880   56.4380 C.ar  274  TRP274      0.0003
    118  CD1       34.4100   31.8600   56.5720 C.ar  274  TRP274      0.0946
    119  CD2       36.3190   32.2110   55.4480 C.ar  274  TRP274      0.0152
    120  NE1       34.2070   32.9280   55.7250 N.ar  274  TRP274     -0.2442
    121  CE2       35.3610   33.1650   55.0230 C.ar  274  TRP274      0.0810
    122  CE3       37.5990   32.2370   54.8770 C.ar  274  TRP274      0.0012
    123  CZ2       35.6450   34.1320   54.0520 C.ar  274  TRP274      0.0191
    124  CZ3       37.8820   33.1980   53.9110 C.ar  274  TRP274      0.0001
    125  CH2       36.9070   34.1330   53.5080 C.ar  274  TRP274      0.0015
    126  N         35.3470   32.3400   59.6340 N.am  275  ARG275     -0.1980
    127  CA        35.5200   33.6440   60.2790 C.3   275  ARG275      0.1597
    128  C         34.5790   33.7630   61.4820 C.2   275  ARG275      0.2287
    129  O         33.7950   34.7110   61.5880 O.2   275  ARG275     -0.2864
    130  CB        35.2410   34.7880   59.2940 C.3   275  ARG275      0.0334
    131  CG        36.2690   34.9210   58.1760 C.3   275  ARG275      0.0492
    132  CD        35.9500   36.0980   57.2630 C.3   275  ARG275      0.2205
    133  NE        36.9930   36.3050   56.2610 N.pl3 275  ARG275     -0.0865
    134  CZ        36.9320   37.2070   55.2860 C.cat 275  ARG275      0.5346
    135  NH1       35.8720   38.0010   55.1690 N.pl3 275  ARG275      0.1354
    136  NH2       37.9340   37.3100   54.4210 N.pl3 275  ARG275      0.1354
@<TRIPOS>BOND
     1     1     2    1
     2    55    54    2
     3    17    18    2
     4    17    16    1
     5     2     3    1
     6     2     5    1
     7    54    53    1
     8     3     4    2
     9    15    16    1
    10    16    19    1
    11     5     6    1
    12    52    53    1
    13    53    56    1
    14     7     6   ar
    15     7     9   ar
    16     6     8   ar
    17    19    20    1
    18    56    57    1
    19    24    25    1
    20    20    21    1
    21    47    46    2
    22    25    26    1
    23    25    28    1
    24     9    10   ar
    25    26    27    2
    26     8    10   ar
    27     8    11   ar
    28    35    34    2
    29    57    58   ar
    30    57    59   ar
    31    32    33    1
    32    46    45    1
    33    58    60   ar
    34    10    12   ar
    35    11    13   ar
    36    30    29   ar
    37    21    22   ar
    38    21    23   ar
    39    34    33    1
    40    34    44   am
    41    28    29    1
    42    59    62   ar
    43    59    61   ar
    44    66    67    1
    45    74    72   am
    46    33    36    1
    47    29    31   ar
    48    62    64   ar
    49    45    48    1
    50    45    44    1
    51    40    38   ar
    52    40    42   ar
    53    48    49    1
    54    38    37   ar
    55    71    72    1
    56    71    70    1
    57    43    42    1
    58    60    61   ar
    59    13    14   ar
    60    12    14   ar
    61    42    41   ar
    62    72    73    2
    63    61    63   ar
    64    37    36    1
    65    37    39   ar
    66    67    70    1
    67    67    68    1
    68    64    65   ar
    69   111   109   ar
    70    41    39   ar
    71    49    50    2
    72    49    51   am
    73    63    65   ar
    74    68    69    2
    75   109   108    1
    76   109   110   ar
    77   108   107    1
    78   103   104    1
    79   107   104    1
    80   104   105    1
    81    82    84   ar
    82    82    80   ar
    83    75    76    1
    84    84    83   ar
    85   105   106    2
    86   101   102    1
    87   101    98    1
    88    80    79    1
    89    80    81   ar
    90    79    76    1
    91    76    77    1
    92    98    99    1
    93    98    97    1
    94    78    77    2
    95    83    81   ar
    96   100    99    2
    97    96    95    2
    98    97    95   am
    99   125   124   ar
   100   125   123   ar
   101    95    94    1
   102   124   122   ar
   103   123   121   ar
   104   136   134    1
   105   122   119   ar
   106   121   119   ar
   107   121   120   ar
   108    94    93    1
   109    91    90    2
   110   135   134    1
   111   134   133    2
   112    85    86    1
   113    92    90   am
   114   119   117   ar
   115    88    87    2
   116    90    89    1
   117   120   118   ar
   118   133   132    1
   119   117   118   ar
   120   117   116    1
   121    87    86    1
   122    86    89    1
   123   116   113    1
   124   132   131    1
   125   131   130    1
   126   113   112    1
   127   113   114    1
   128   130   127    1
   129   114   115    2
   130   114   126   am
   131   126   127    1
   132   127   128    1
   133   128   129    2
