@<TRIPOS>MOLECULE
tmp/1iswA03.pdb
 78 74 0 0 0
SMALL
GASTEIGER

@<TRIPOS>ATOM
      1  N          5.7840   36.4680   77.2820 N.3   408  ASP408     -0.1225
      2  CA         4.4740   36.0210   77.7220 C.3   408  ASP408      0.1805
      3  C          3.8510   36.8910   78.8260 C.2   408  ASP408      0.2598
      4  O          4.5040   37.2280   79.8100 O.2   408  ASP408     -0.2718
      5  CB         4.6490   34.5630   78.1820 C.3   408  ASP408      0.1424
      6  CG         3.3990   33.9600   78.7530 C.2   408  ASP408      0.3668
      7  OD1        2.9280   34.4600   79.7920 O.co2 408  ASP408     -0.2456
      8  OD2        2.9010   32.9710   78.1660 O.co2 408  ASP408     -0.2456
      9  N          2.5900   37.2710   78.6420 N.am  409  ALA409     -0.1966
     10  CA         1.8900   38.0740   79.6340 C.3   409  ALA409      0.1728
     11  C          1.4290   37.0630   80.6790 C.2   409  ALA409      0.2616
     12  O          0.6070   36.1890   80.3940 O.2   409  ALA409     -0.2715
     13  CB         0.7020   38.7870   78.9930 C.3   409  ALA409      0.0334
     14  N          1.9800   37.1770   81.8820 N.am  410  VAL410     -0.1963
     15  CA         1.6900   36.2480   82.9660 C.3   410  VAL410      0.1727
     16  C          0.2270   35.8750   83.1790 C.2   410  VAL410      0.2617
     17  O         -0.6410   36.7300   83.3260 O.2   410  VAL410     -0.2715
     18  CB         2.2780   36.7650   84.2950 C.3   410  VAL410      0.0290
     19  CG1        2.0120   35.7620   85.4080 C.3   410  VAL410      0.0023
     20  CG2        3.7750   36.9830   84.1400 C.3   410  VAL410      0.0023
     21  N         -0.0260   34.5740   83.1960 N.am  411  GLY411     -0.1940
     22  CA        -1.3680   34.0690   83.4030 C.3   411  GLY411      0.2014
     23  C         -2.3580   34.5770   82.3790 C.2   411  GLY411      0.2639
     24  O         -3.5640   34.5570   82.6250 O.2   411  GLY411     -0.2714
     25  N         -1.8580   35.0190   81.2260 N.am  412  GLY412     -0.1954
     26  CA        -2.7400   35.5410   80.1960 C.3   412  GLY412      0.1869
     27  C         -3.3910   36.8410   80.6440 C.2   412  GLY412      0.2309
     28  O         -4.4630   37.2140   80.1640 O.2   412  GLY412     -0.2863
     29  N          6.9120   37.7500   81.2640 N.3   421  GLN421     -0.1245
     30  CA         7.8430   36.6700   81.5620 C.3   421  GLN421      0.1566
     31  C          8.1680   35.8940   80.2870 C.2   421  GLN421      0.2260
     32  O          7.6080   36.1600   79.2240 O.2   421  GLN421     -0.2867
     33  CB         7.2060   35.6990   82.5590 C.3   421  GLN421      0.0367
     34  CG         6.1820   34.7540   81.9180 C.3   421  GLN421      0.0905
     35  CD         5.4190   33.9100   82.9280 C.2   421  GLN421      0.2608
     36  OE1        5.9520   33.5320   83.9700 O.2   421  GLN421     -0.2717
     37  NE2        4.1680   33.5950   82.6090 N.am  421  GLN421     -0.0878
     38  N          8.1940   32.1590   78.4400 N.3   423  TYR423     -0.1227
     39  CA         7.4410   30.9190   78.5790 C.3   423  TYR423      0.1736
     40  C          7.3800   30.1830   77.2510 C.2   423  TYR423      0.2596
     41  O          7.4630   30.8070   76.1920 O.2   423  TYR423     -0.2718
     42  CB         6.0280   31.2170   79.0930 C.3   423  TYR423      0.0548
     43  CG         5.3570   30.0210   79.7310 C.ar  423  TYR423     -0.0200
     44  CD1        4.7330   29.0450   78.9500 C.ar  423  TYR423     -0.0009
     45  CD2        5.3840   29.8420   81.1190 C.ar  423  TYR423     -0.0009
     46  CE1        4.1550   27.9200   79.5320 C.ar  423  TYR423      0.0417
     47  CE2        4.8110   28.7210   81.7110 C.ar  423  TYR423      0.0417
     48  CZ         4.2000   27.7630   80.9100 C.ar  423  TYR423      0.1957
     49  OH         3.6560   26.6370   81.4800 O.3   423  TYR423     -0.2866
     50  N          7.2530   28.8570   77.3090 N.am  424  SER424     -0.1952
     51  CA         7.1710   28.0530   76.0910 C.3   424  SER424      0.1924
     52  C          6.1680   28.7040   75.1700 C.2   424  SER424      0.2314
     53  O          5.0680   29.0430   75.5960 O.2   424  SER424     -0.2863
     54  CB         6.7080   26.6270   76.3990 C.3   424  SER424      0.2116
     55  OG         7.7140   25.8890   77.0680 O.3   424  SER424     -0.2180
     56  N          3.2600   29.3190   72.8390 N.3   426  SER426     -0.1217
     57  CA         1.9880   28.6160   72.7500 C.3   426  SER426      0.1889
     58  C          1.0250   29.1300   71.6890 C.2   426  SER426      0.2288
     59  O         -0.0530   28.5680   71.5100 O.2   426  SER426     -0.2866
     60  CB         1.2890   28.7040   74.1010 C.3   426  SER426      0.2089
     61  OG         0.9800   30.0600   74.3850 O.3   426  SER426     -0.2183
     62  N         -1.6150   36.0440   74.4270 N.3   430  ASN430     -0.1225
     63  CA        -0.7980   36.7420   75.4150 C.3   430  ASN430      0.1785
     64  C          0.6810   36.5440   75.0900 C.2   430  ASN430      0.2597
     65  O          1.5550   36.8590   75.9040 O.2   430  ASN430     -0.2718
     66  CB        -1.1040   36.2210   76.8230 C.3   430  ASN430      0.1169
     67  CG        -0.6410   34.7970   77.0250 C.2   430  ASN430      0.2627
     68  OD1       -0.8880   33.9330   76.1830 O.2   430  ASN430     -0.2716
     69  ND2        0.0320   34.5390   78.1470 N.am  430  ASN430     -0.0877
     70  N          0.9470   36.0040   73.8990 N.am  431  GLN431     -0.1979
     71  CA         2.3110   35.7840   73.4220 C.3   431  GLN431      0.1601
     72  C          2.4680   36.3760   72.0290 C.2   431  GLN431      0.2287
     73  O          3.4720   36.1360   71.3540 O.2   431  GLN431     -0.2864
     74  CB         2.6510   34.2930   73.3610 C.3   431  GLN431      0.0394
     75  CG         2.8770   33.6200   74.7060 C.3   431  GLN431      0.0908
     76  CD         3.5810   32.2740   74.5640 C.2   431  GLN431      0.2608
     77  OE1        3.8780   31.8270   73.4560 O.2   431  GLN431     -0.2717
     78  NE2        3.8530   31.6310   75.6850 N.am  431  GLN431     -0.0878
@<TRIPOS>BOND
     1    73    72    2
     2    59    58    2
     3    58    57    1
     4    72    71    1
     5    57    56    1
     6    57    60    1
     7    74    71    1
     8    74    75    1
     9    71    70    1
    10    77    76    2
    11    70    64   am
    12    60    61    1
    13    62    63    1
    14    76    75    1
    15    76    78   am
    16    64    63    1
    17    64    65    2
    18    52    53    2
    19    52    51    1
    20    63    66    1
    21    51    54    1
    22    51    50    1
    23    68    67    2
    24    41    40    2
    25    54    55    1
    26    66    67    1
    27    67    69   am
    28    40    50   am
    29    40    39    1
    30     1     2    1
    31     2     5    1
    32     2     3    1
    33     8     6   ar
    34     5     6    1
    35    38    39    1
    36    39    42    1
    37     9     3   am
    38     9    10    1
    39     6     7   ar
    40     3     4    2
    41    44    46   ar
    42    44    43   ar
    43    13    10    1
    44    42    43    1
    45    32    31    2
    46    46    48   ar
    47    10    11    1
    48    43    45   ar
    49    28    27    2
    50    26    27    1
    51    26    25    1
    52    31    30    1
    53    12    11    2
    54    11    14   am
    55    48    49    1
    56    48    47   ar
    57    45    47   ar
    58    25    23   am
    59    29    30    1
    60    30    33    1
    61    14    15    1
    62    34    33    1
    63    34    35    1
    64    23    24    2
    65    23    22    1
    66    37    35   am
    67    35    36    2
    68    15    16    1
    69    15    18    1
    70    16    21   am
    71    16    17    2
    72    21    22    1
    73    20    18    1
    74    18    19    1
