@<TRIPOS>MOLECULE
tmp/1isxB01.pdb
 142 138 0 0 0
SMALL
GASTEIGER

@<TRIPOS>ATOM
      1  N         34.2050   26.6020  104.3490 N.3    85  TRP85      -0.1241
      2  CA        33.2460   26.7640  103.2700 C.3    85  TRP85       0.1605
      3  C         32.5930   25.4370  102.8780 C.2    85  TRP85       0.2264
      4  O         33.2160   24.3700  102.9620 O.2    85  TRP85      -0.2867
      5  CB        34.0040   27.3880  102.0920 C.3    85  TRP85       0.0550
      6  CG        33.2060   27.7800  100.8980 C.ar   85  TRP85       0.0003
      7  CD1       31.8770   28.0880  100.8520 C.ar   85  TRP85       0.0946
      8  CD2       33.7150   27.9950   99.5730 C.ar   85  TRP85       0.0152
      9  NE1       31.5270   28.4850   99.5800 N.ar   85  TRP85      -0.2442
     10  CE2       32.6360   28.4370   98.7760 C.ar   85  TRP85       0.0810
     11  CE3       34.9810   27.8580   98.9840 C.ar   85  TRP85       0.0012
     12  CZ2       32.7830   28.7440   97.4110 C.ar   85  TRP85       0.0191
     13  CZ3       35.1270   28.1650   97.6270 C.ar   85  TRP85       0.0001
     14  CH2       34.0320   28.6010   96.8580 C.ar   85  TRP85       0.0015
     15  N         31.6080   24.6860   99.9080 N.3    87  SER87      -0.1217
     16  CA        31.9830   24.3510   98.5430 C.3    87  SER87       0.1889
     17  C         33.4670   24.0100   98.3720 C.2    87  SER87       0.2288
     18  O         34.3110   24.4400   99.1560 O.2    87  SER87      -0.2866
     19  CB        31.5820   25.5100   97.6230 C.3    87  SER87       0.2089
     20  OG        31.7870   25.1930   96.2620 O.3    87  SER87      -0.2183
     21  N         30.2630   32.2090  102.2130 N.3   128  GLU128     -0.1245
     22  CA        28.9050   31.8430  101.7970 C.3   128  GLU128      0.1567
     23  C         28.1250   30.9290  102.7410 C.2   128  GLU128      0.2260
     24  O         27.6930   29.8410  102.3420 O.2   128  GLU128     -0.2867
     25  CB        28.9780   31.1910  100.4110 C.3   128  GLU128      0.0388
     26  CG        30.1180   31.7370   99.5600 C.3   128  GLU128      0.1160
     27  CD        30.0940   31.2490   98.1200 C.2   128  GLU128      0.3649
     28  OE1       29.6340   30.1160   97.8720 O.co2 128  GLU128     -0.2457
     29  OE2       30.5570   32.0000   97.2330 O.co2 128  GLU128     -0.2457
     30  N         20.1320   31.4370   99.8070 N.3   132  ASP132     -0.1239
     31  CA        19.6120   32.3010   98.7500 C.3   132  ASP132      0.1674
     32  C         18.0970   32.1140   98.6030 C.2   132  ASP132      0.2266
     33  O         17.4660   32.7970   97.7980 O.2   132  ASP132     -0.2867
     34  CB        20.2620   31.9800   97.4000 C.3   132  ASP132      0.1410
     35  CG        21.6920   32.4680   97.3010 C.2   132  ASP132      0.3668
     36  OD1       21.9450   33.6450   97.6270 O.co2 132  ASP132     -0.2456
     37  OD2       22.5610   31.6740   96.8850 O.co2 132  ASP132     -0.2456
     38  N         28.1510   36.4240   98.7150 N.3   172  TYR172     -0.1227
     39  CA        27.5990   37.0640   97.5160 C.3   172  TYR172      0.1736
     40  C         26.1070   37.3180   97.7210 C.2   172  TYR172      0.2595
     41  O         25.4940   36.7420   98.6240 O.2   172  TYR172     -0.2718
     42  CB        27.7850   36.1740   96.2800 C.3   172  TYR172      0.0548
     43  CG        27.0330   34.8630   96.3540 C.ar  172  TYR172     -0.0200
     44  CD1       27.5830   33.7620   97.0070 C.ar  172  TYR172     -0.0009
     45  CD2       25.7590   34.7320   95.7950 C.ar  172  TYR172     -0.0009
     46  CE1       26.8880   32.5630   97.1110 C.ar  172  TYR172      0.0417
     47  CE2       25.0500   33.5320   95.8880 C.ar  172  TYR172      0.0417
     48  CZ        25.6250   32.4540   96.5530 C.ar  172  TYR172      0.1957
     49  OH        24.9360   31.2760   96.6830 O.3   172  TYR172     -0.2866
     50  N         25.5240   38.1620   96.8710 N.am  173  ASN173     -0.1974
     51  CA        24.1040   38.5160   96.9670 C.3   173  ASN173      0.1688
     52  C         23.7900   39.1780   98.3160 C.2   173  ASN173      0.2292
     53  O         22.6970   39.0250   98.8690 O.2   173  ASN173     -0.2864
     54  CB        23.2130   37.2770   96.7690 C.3   173  ASN173      0.1181
     55  CG        23.0840   36.8670   95.3000 C.2   173  ASN173      0.2629
     56  OD1       22.3950   35.8950   94.9670 O.2   173  ASN173     -0.2716
     57  ND2       23.7430   37.6100   94.4180 N.am  173  ASN173     -0.0877
     58  N         17.5670   42.7570  100.0590 N.3   179  TRP179     -0.1241
     59  CA        17.5540   41.3010  100.0700 C.3   179  TRP179      0.1605
     60  C         17.6990   40.7920  101.4960 C.2   179  TRP179      0.2264
     61  O         18.4580   41.3430  102.2940 O.2   179  TRP179     -0.2867
     62  CB        18.6590   40.7510   99.1570 C.3   179  TRP179      0.0550
     63  CG        18.3160   40.8850   97.6840 C.ar  179  TRP179      0.0003
     64  CD1       17.6160   41.9030   97.0950 C.ar  179  TRP179      0.0946
     65  CD2       18.6900   39.9940   96.6180 C.ar  179  TRP179      0.0152
     66  NE1       17.5330   41.7050   95.7350 N.ar  179  TRP179     -0.2442
     67  CE2       18.1850   40.5430   95.4140 C.ar  179  TRP179      0.0810
     68  CE3       19.4040   38.7880   96.5630 C.ar  179  TRP179      0.0012
     69  CZ2       18.3740   39.9240   94.1660 C.ar  179  TRP179      0.0191
     70  CZ3       19.5910   38.1710   95.3180 C.ar  179  TRP179      0.0001
     71  CH2       19.0770   38.7430   94.1390 C.ar  179  TRP179      0.0015
     72  N         31.3450   39.9500   97.8280 N.3   205  GLN205     -0.1245
     73  CA        31.8450   39.3980   96.5800 C.3   205  GLN205      0.1566
     74  C         31.5570   40.2770   95.3810 C.2   205  GLN205      0.2260
     75  O         32.4280   40.4820   94.5470 O.2   205  GLN205     -0.2867
     76  CB        31.2930   37.9890   96.3720 C.3   205  GLN205      0.0367
     77  CG        31.9290   36.9590   97.3170 C.3   205  GLN205      0.0905
     78  CD        31.3660   35.5710   97.1090 C.2   205  GLN205      0.2608
     79  OE1       30.7510   35.2990   96.0810 O.2   205  GLN205     -0.2717
     80  NE2       31.5750   34.6840   98.0780 N.am  205  GLN205     -0.0878
     81  N         29.3880   39.8730   92.6860 N.3   207  HIS207     -0.1241
     82  CA        29.2810   39.1910   91.4040 C.3   207  HIS207      0.1621
     83  C         27.9370   39.6820   90.8690 C.2   207  HIS207      0.2264
     84  O         26.8980   39.0870   91.1500 O.2   207  HIS207     -0.2867
     85  CB        29.2430   37.6730   91.5970 C.3   207  HIS207      0.0745
     86  CG        30.5690   37.0740   91.9450 C.ar  207  HIS207      0.0817
     87  ND1       31.6450   37.0990   91.0830 N.ar  207  HIS207     -0.2268
     88  CD2       30.9990   36.4440   93.0650 C.ar  207  HIS207      0.1154
     89  CE1       32.6810   36.5120   91.6570 C.ar  207  HIS207      0.1986
     90  NE2       32.3160   36.1070   92.8600 N.ar  207  HIS207     -0.2212
     91  N         25.1050   40.6020   87.9740 N.3   209  ASN209     -0.1240
     92  CA        24.5960   40.1760   86.6750 C.3   209  ASN209      0.1653
     93  C         23.1010   40.4960   86.6350 C.2   209  ASN209      0.2266
     94  O         22.5440   40.9330   87.6400 O.2   209  ASN209     -0.2867
     95  CB        24.8470   38.6820   86.4600 C.3   209  ASN209      0.1155
     96  CG        24.3270   37.8370   87.5950 C.2   209  ASN209      0.2627
     97  OD1       23.1590   37.9340   87.9730 O.2   209  ASN209     -0.2716
     98  ND2       25.1930   36.9940   88.1450 N.am  209  ASN209     -0.0877
     99  N         20.6960   38.7400   86.9300 N.3   211  GLY211     -0.1210
    100  CA        19.9500   37.9470   87.8930 C.3   211  GLY211      0.1956
    101  C         19.9760   38.6070   89.2640 C.2   211  GLY211      0.2612
    102  O         18.9740   38.6310   89.9820 O.2   211  GLY211     -0.2717
    103  N         21.1360   39.1300   89.6430 N.am  212  SER212     -0.1952
    104  CA        21.2930   39.8220   90.9190 C.3   212  SER212      0.1924
    105  C         22.1140   41.0510   90.5690 C.2   212  SER212      0.2314
    106  O         23.3210   41.1020   90.7810 O.2   212  SER212     -0.2863
    107  CB        22.0040   38.9300   91.9450 C.3   212  SER212      0.2116
    108  OG        23.0960   38.2390   91.3760 O.3   212  SER212     -0.2180
    109  N         35.2770   40.1680   95.1010 N.3   236  GLU236     -0.1245
    110  CA        35.2600   39.3310   93.9000 C.3   236  GLU236      0.1567
    111  C         34.4880   39.9750   92.7640 C.2   236  GLU236      0.2260
    112  O         33.7450   39.3170   92.0350 O.2   236  GLU236     -0.2867
    113  CB        34.6380   37.9790   94.2650 C.3   236  GLU236      0.0388
    114  CG        35.4530   37.2110   95.3020 C.3   236  GLU236      0.1160
    115  CD        34.8020   35.9180   95.7120 C.2   236  GLU236      0.3649
    116  OE1       34.1440   35.3010   94.8530 O.co2 236  GLU236     -0.2457
    117  OE2       34.9590   35.5090   96.8830 O.co2 236  GLU236     -0.2457
    118  N         35.9260   33.0580   85.4350 N.3   274  TRP274     -0.1227
    119  CA        35.2000   31.8330   85.7060 C.3   274  TRP274      0.1737
    120  C         33.8770   31.9200   84.9500 C.2   274  TRP274      0.2595
    121  O         33.1620   30.9310   84.8160 O.2   274  TRP274     -0.2718
    122  CB        34.9610   31.6740   87.2100 C.3   274  TRP274      0.0564
    123  CG        34.0660   32.7080   87.8070 C.ar  274  TRP274      0.0003
    124  CD1       34.1880   34.0620   87.6990 C.ar  274  TRP274      0.0946
    125  CD2       32.9270   32.4740   88.6470 C.ar  274  TRP274      0.0152
    126  NE1       33.2010   34.6860   88.4200 N.ar  274  TRP274     -0.2442
    127  CE2       32.4120   33.7370   89.0130 C.ar  274  TRP274      0.0810
    128  CE3       32.2950   31.3210   89.1240 C.ar  274  TRP274      0.0012
    129  CZ2       31.2950   33.8800   89.8370 C.ar  274  TRP274      0.0191
    130  CZ3       31.1800   31.4630   89.9460 C.ar  274  TRP274      0.0001
    131  CH2       30.6930   32.7340   90.2930 C.ar  274  TRP274      0.0015
    132  N         33.5640   33.1180   84.4590 N.am  275  ARG275     -0.1980
    133  CA        32.3470   33.3590   83.6770 C.3   275  ARG275      0.1597
    134  C         32.7020   34.2220   82.4580 C.2   275  ARG275      0.2287
    135  O         32.1420   35.2980   82.2420 O.2   275  ARG275     -0.2864
    136  CB        31.2790   34.0480   84.5400 C.3   275  ARG275      0.0334
    137  CG        30.6460   33.1100   85.5860 C.3   275  ARG275      0.0492
    138  CD        29.7010   33.8370   86.5280 C.3   275  ARG275      0.2205
    139  NE        29.0340   32.9200   87.4510 N.pl3 275  ARG275     -0.0865
    140  CZ        28.1750   33.2950   88.3990 C.cat 275  ARG275      0.5346
    141  NH1       27.8700   34.5790   88.5620 N.pl3 275  ARG275      0.1354
    142  NH2       27.6150   32.3860   89.1860 N.pl3 275  ARG275      0.1354
@<TRIPOS>BOND
     1   135   134    2
     2   134   133    1
     3   133   132    1
     4   133   136    1
     5   132   120   am
     6   136   137    1
     7   121   120    2
     8   120   119    1
     9   118   119    1
    10   137   138    1
    11   119   122    1
    12    95    92    1
    13    95    96    1
    14   138   139    1
    15    93    92    1
    16    93    94    2
    17    92    91    1
    18    99   100    1
    19   122   123    1
    20   139   140    2
    21    96    97    2
    22    96    98   am
    23   124   123   ar
    24   124   126   ar
    25   123   125   ar
    26   100   101    1
    27   140   141    1
    28   140   142    1
    29   126   127   ar
    30   125   127   ar
    31   125   128   ar
    32   127   129   ar
    33   128   130   ar
    34   101   103   am
    35   101   102    2
    36   103   104    1
    37   129   131   ar
    38   130   131   ar
    39   105   106    2
    40   105   104    1
    41    83    84    2
    42    83    82    1
    43   104   107    1
    44    87    89   ar
    45    87    86   ar
    46   108   107    1
    47    82    85    1
    48    82    81    1
    49    85    86    1
    50    89    90   ar
    51    86    88   ar
    52   112   111    2
    53   111   110    1
    54    90    88   ar
    55   110   113    1
    56   110   109    1
    57    71    69   ar
    58    71    70   ar
    59    69    67   ar
    60   113   114    1
    61    57    55   am
    62    75    74    2
    63   116   115   ar
    64    56    55    2
    65    55    54    1
    66   114   115    1
    67    70    68   ar
    68    74    73    1
    69    67    66   ar
    70    67    65   ar
    71   115   117   ar
    72    66    64   ar
    73    45    47   ar
    74    45    43   ar
    75    47    48   ar
    76    79    78    2
    77    20    19    1
    78    42    43    1
    79    42    39    1
    80    43    44   ar
    81    76    73    1
    82    76    77    1
    83    48    49    1
    84    48    46   ar
    85    68    65   ar
    86    73    72    1
    87    65    63   ar
    88    54    51    1
    89    14    12   ar
    90    14    13   ar
    91    50    51    1
    92    50    40   am
    93    37    35   ar
    94    51    52    1
    95    44    46   ar
    96    64    63   ar
    97    78    77    1
    98    78    80   am
    99    29    27   ar
   100    35    34    1
   101    35    36   ar
   102    34    31    1
   103    12    10   ar
   104    39    40    1
   105    39    38    1
   106    19    16    1
   107    13    11   ar
   108    63    62    1
   109    40    41    2
   110    33    32    2
   111    28    27   ar
   112    27    26    1
   113    52    53    2
   114    17    16    1
   115    17    18    2
   116    16    15    1
   117    32    31    1
   118    31    30    1
   119    10     8   ar
   120    10     9   ar
   121    11     8   ar
   122    62    59    1
   123    26    25    1
   124     8     6   ar
   125     9     7   ar
   126    58    59    1
   127    59    60    1
   128    25    22    1
   129     7     6   ar
   130     6     5    1
   131    60    61    2
   132    22    21    1
   133    22    23    1
   134     5     2    1
   135    24    23    2
   136     3     4    2
   137     3     2    1
   138     2     1    1
