@<TRIPOS>MOLECULE
tmp/1isxA00.pdb
 144 141 0 0 0
SMALL
GASTEIGER

@<TRIPOS>ATOM
      1  N         32.6730   22.7170   51.4450 N.3    44  GLU44      -0.1231
      2  CA        33.5450   23.8150   51.8510 C.3    44  GLU44       0.1699
      3  C         34.9760   23.7150   51.3160 C.2    44  GLU44       0.2592
      4  O         35.6130   24.7310   51.0520 O.2    44  GLU44      -0.2718
      5  CB        33.5640   23.9430   53.3840 C.3    44  GLU44       0.0402
      6  CG        34.4250   25.0950   53.9010 C.3    44  GLU44       0.1161
      7  CD        34.2280   25.3800   55.3890 C.2    44  GLU44       0.3649
      8  OE1       34.0470   24.4200   56.1670 O.co2  44  GLU44      -0.2457
      9  OE2       34.2740   26.5670   55.7840 O.co2  44  GLU44      -0.2457
     10  N         35.4760   22.4980   51.1340 N.am   45  ASN45      -0.1974
     11  CA        36.8460   22.3180   50.6570 C.3    45  ASN45       0.1688
     12  C         37.0520   21.0440   49.8510 C.2    45  ASN45       0.2292
     13  O         37.9560   20.9630   49.0190 O.2    45  ASN45      -0.2864
     14  CB        37.8070   22.2830   51.8500 C.3    45  ASN45       0.1181
     15  CG        37.9320   23.6200   52.5420 C.2    45  ASN45       0.2629
     16  OD1       38.4090   24.5890   51.9530 O.2    45  ASN45      -0.2716
     17  ND2       37.5050   23.6830   53.8020 N.am   45  ASN45      -0.0877
     18  N         37.7090   21.1640   45.9160 N.3    48  LYS48      -0.1245
     19  CA        38.6920   22.0870   45.3790 C.3    48  LYS48       0.1561
     20  C         39.7990   21.2960   44.6760 C.2    48  LYS48       0.2260
     21  O         39.8910   20.0760   44.8150 O.2    48  LYS48      -0.2867
     22  CB        39.2470   22.9680   46.5030 C.3    48  LYS48       0.0271
     23  CG        38.1870   23.9020   47.0840 C.3    48  LYS48       0.0035
     24  CD        38.6990   24.7520   48.2430 C.3    48  LYS48       0.0206
     25  CE        37.5720   25.6110   48.8090 C.3    48  LYS48       0.1093
     26  NZ        37.9880   26.4390   49.9700 N.3    48  LYS48      -0.1314
     27  N         32.4050   23.3950   43.8070 N.3    81  HIS81      -0.1241
     28  CA        33.3430   24.4650   44.1400 C.3    81  HIS81       0.1621
     29  C         34.7340   23.8910   44.4240 C.2    81  HIS81       0.2264
     30  O         34.8980   23.1750   45.4090 O.2    81  HIS81      -0.2867
     31  CB        32.8210   25.1900   45.3850 C.3    81  HIS81       0.0745
     32  CG        33.6490   26.3610   45.8100 C.ar   81  HIS81       0.0817
     33  ND1       33.6620   27.5540   45.1210 N.ar   81  HIS81      -0.2268
     34  CD2       34.4780   26.5290   46.8690 C.ar   81  HIS81       0.1154
     35  CE1       34.4590   28.4070   45.7380 C.ar   81  HIS81       0.1986
     36  NE2       34.9670   27.8100   46.8010 N.ar   81  HIS81      -0.2212
     37  N         41.3170   27.8320   40.0090 N.3    85  TRP85      -0.1241
     38  CA        41.5310   28.8880   40.9880 C.3    85  TRP85       0.1605
     39  C         43.0110   28.9710   41.3600 C.2    85  TRP85       0.2264
     40  O         43.7250   27.9690   41.3110 O.2    85  TRP85      -0.2867
     41  CB        40.6630   28.5560   42.2090 C.3    85  TRP85       0.0550
     42  CG        40.7070   29.4930   43.3740 C.ar   85  TRP85       0.0003
     43  CD1       41.0270   30.8200   43.3630 C.ar   85  TRP85       0.0946
     44  CD2       40.3180   29.1840   44.7200 C.ar   85  TRP85       0.0152
     45  NE1       40.8560   31.3570   44.6190 N.ar   85  TRP85      -0.2442
     46  CE2       40.4220   30.3740   45.4690 C.ar   85  TRP85       0.0810
     47  CE3       39.8870   28.0130   45.3620 C.ar   85  TRP85       0.0012
     48  CZ2       40.1090   30.4300   46.8340 C.ar   85  TRP85       0.0191
     49  CZ3       39.5750   28.0670   46.7190 C.ar   85  TRP85       0.0001
     50  CH2       39.6890   29.2680   47.4380 C.ar   85  TRP85       0.0015
     51  N         44.5670   27.1730   46.9430 N.3    88  GLN88      -0.1245
     52  CA        44.3880   25.7760   47.2850 C.3    88  GLN88       0.1566
     53  C         44.6620   24.8060   46.1420 C.2    88  GLN88       0.2260
     54  O         43.9530   23.8130   45.9720 O.2    88  GLN88      -0.2867
     55  CB        42.9870   25.5620   47.8690 C.3    88  GLN88       0.0367
     56  CG        42.9050   25.9910   49.3250 C.3    88  GLN88       0.0905
     57  CD        41.5060   25.9160   49.9000 C.2    88  GLN88       0.2608
     58  OE1       40.6630   26.7850   49.6460 O.2    88  GLN88      -0.2717
     59  NE2       41.2470   24.8710   50.6800 N.am   88  GLN88      -0.0878
     60  N         37.3470   30.8420   39.8160 N.3   127  ASN127     -0.1225
     61  CA        37.1710   31.5590   41.0720 C.3   127  ASN127      0.1785
     62  C         38.2200   32.6510   41.3190 C.2   127  ASN127      0.2597
     63  O         39.4200   32.4210   41.1620 O.2   127  ASN127     -0.2718
     64  CB        37.1850   30.5530   42.2380 C.3   127  ASN127      0.1169
     65  CG        36.7140   31.1610   43.5520 C.2   127  ASN127      0.2627
     66  OD1       35.6520   31.7710   43.6170 O.2   127  ASN127     -0.2716
     67  ND2       37.5030   30.9840   44.6090 N.am  127  ASN127     -0.0877
     68  N         37.7410   33.8370   41.6950 N.am  128  GLU128     -0.1979
     69  CA        38.5790   34.9910   42.0240 C.3   128  GLU128      0.1602
     70  C         39.7250   35.2810   41.0490 C.2   128  GLU128      0.2287
     71  O         40.8970   35.1880   41.4190 O.2   128  GLU128     -0.2864
     72  CB        39.1440   34.8110   43.4400 C.3   128  GLU128      0.0415
     73  CG        38.1970   34.0690   44.3750 C.3   128  GLU128      0.1163
     74  CD        38.7280   33.9090   45.7920 C.2   128  GLU128      0.3649
     75  OE1       39.9460   33.6800   45.9670 O.co2 128  GLU128     -0.2457
     76  OE2       37.9150   33.9900   46.7370 O.co2 128  GLU128     -0.2457
     77  N         34.7830   37.5510   44.9480 N.3   172  TYR172     -0.1241
     78  CA        34.3780   38.3700   46.0940 C.3   172  TYR172      0.1605
     79  C         34.7080   39.8330   45.7940 C.2   172  TYR172      0.2264
     80  O         35.4630   40.1310   44.8660 O.2   172  TYR172     -0.2867
     81  CB        35.1080   37.9360   47.3650 C.3   172  TYR172      0.0534
     82  CG        36.6040   38.0860   47.2750 C.ar  172  TYR172     -0.0201
     83  CD1       37.3860   37.1120   46.6550 C.ar  172  TYR172     -0.0009
     84  CD2       37.2340   39.2350   47.7530 C.ar  172  TYR172     -0.0009
     85  CE1       38.7560   37.2790   46.5130 C.ar  172  TYR172      0.0417
     86  CE2       38.6040   39.4130   47.6120 C.ar  172  TYR172      0.0417
     87  CZ        39.3560   38.4330   46.9900 C.ar  172  TYR172      0.1957
     88  OH        40.7030   38.6270   46.8300 O.3   172  TYR172     -0.2866
     89  N         30.2240   35.9680   46.0340 N.3   205  GLN205     -0.1245
     90  CA        30.5350   35.3830   47.3310 C.3   205  GLN205      0.1566
     91  C         29.8210   36.0760   48.4760 C.2   205  GLN205      0.2260
     92  O         29.3580   35.4220   49.4120 O.2   205  GLN205     -0.2867
     93  CB        32.0410   35.3810   47.5520 C.3   205  GLN205      0.0367
     94  CG        32.7490   34.3040   46.7360 C.3   205  GLN205      0.0905
     95  CD        34.2400   34.3380   46.9360 C.2   205  GLN205      0.2608
     96  OE1       34.7150   34.8220   47.9610 O.2   205  GLN205     -0.2717
     97  NE2       34.9940   33.8160   45.9670 N.am  205  GLN205     -0.0878
     98  N         30.9010   38.2730   50.9690 N.3   207  HIS207     -0.1241
     99  CA        31.5130   38.2360   52.2880 C.3   207  HIS207      0.1621
    100  C         31.5190   39.6940   52.7140 C.2   207  HIS207      0.2264
    101  O         32.4100   40.4480   52.3340 O.2   207  HIS207     -0.2867
    102  CB        32.9490   37.7110   52.2180 C.3   207  HIS207      0.0745
    103  CG        33.0460   36.2430   51.9510 C.ar  207  HIS207      0.0817
    104  ND1       32.4770   35.2980   52.7770 N.ar  207  HIS207     -0.2268
    105  CD2       33.6750   35.5540   50.9670 C.ar  207  HIS207      0.1154
    106  CE1       32.7520   34.0900   52.3160 C.ar  207  HIS207      0.1986
    107  NE2       33.4780   34.2180   51.2190 N.ar  207  HIS207     -0.2212
    108  N         28.6150   32.6300   48.9160 N.3   236  GLU236     -0.1245
    109  CA        29.2820   32.3760   50.1910 C.3   236  GLU236      0.1567
    110  C         28.9510   33.4240   51.2400 C.2   236  GLU236      0.2260
    111  O         29.8230   33.8950   51.9590 O.2   236  GLU236     -0.2867
    112  CB        30.7960   32.3320   49.9550 C.3   236  GLU236      0.0388
    113  CG        31.2240   31.2440   48.9790 C.3   236  GLU236      0.1160
    114  CD        32.6680   31.3830   48.5330 C.2   236  GLU236      0.3649
    115  OE1       33.5020   31.8050   49.3520 O.co2 236  GLU236     -0.2457
    116  OE2       32.9670   31.0600   47.3670 O.co2 236  GLU236     -0.2457
    117  N         27.9780   30.8160   53.9680 N.3   266  TRP266     -0.1241
    118  CA        29.1890   30.0160   54.1000 C.3   266  TRP266      0.1605
    119  C         29.3950   29.3300   55.4510 C.2   266  TRP266      0.2264
    120  O         30.3490   29.6280   56.1800 O.2   266  TRP266     -0.2867
    121  CB        30.4040   30.8750   53.7470 C.3   266  TRP266      0.0550
    122  CG        31.5460   30.0700   53.2280 C.ar  266  TRP266      0.0003
    123  CD1       32.7920   29.9800   53.7620 C.ar  266  TRP266      0.0946
    124  CD2       31.5300   29.1980   52.0930 C.ar  266  TRP266      0.0152
    125  NE1       33.5550   29.1030   53.0390 N.ar  266  TRP266     -0.2442
    126  CE2       32.8060   28.6080   52.0060 C.ar  266  TRP266      0.0810
    127  CE3       30.5600   28.8550   51.1440 C.ar  266  TRP266      0.0012
    128  CZ2       33.1420   27.6960   51.0060 C.ar  266  TRP266      0.0191
    129  CZ3       30.8920   27.9460   50.1490 C.ar  266  TRP266      0.0001
    130  CH2       32.1730   27.3780   50.0880 C.ar  266  TRP266      0.0015
    131  N         34.5510   30.0180   58.8910 N.3   274  TRP274     -0.1241
    132  CA        35.9770   30.1800   58.6500 C.3   274  TRP274      0.1605
    133  C         36.3930   31.4910   59.3100 C.2   274  TRP274      0.2264
    134  O         37.5790   31.7730   59.4730 O.2   274  TRP274     -0.2867
    135  CB        36.2650   30.2210   57.1470 C.3   274  TRP274      0.0550
    136  CG        35.6700   31.4060   56.4490 C.ar  274  TRP274      0.0003
    137  CD1       34.4010   31.8850   56.5860 C.ar  274  TRP274      0.0946
    138  CD2       36.3210   32.2620   55.5000 C.ar  274  TRP274      0.0152
    139  NE1       34.2190   32.9840   55.7860 N.ar  274  TRP274     -0.2442
    140  CE2       35.3800   33.2400   55.1060 C.ar  274  TRP274      0.0810
    141  CE3       37.6080   32.2970   54.9420 C.ar  274  TRP274      0.0012
    142  CZ2       35.6820   34.2460   54.1780 C.ar  274  TRP274      0.0191
    143  CZ3       37.9110   33.2990   54.0170 C.ar  274  TRP274      0.0001
    144  CH2       36.9470   34.2600   53.6460 C.ar  274  TRP274      0.0015
@<TRIPOS>BOND
     1    60    61    1
     2    37    38    1
     3    38    39    1
     4    38    41    1
     5    70    71    2
     6    70    69    1
     7    61    62    1
     8    61    64    1
     9    63    62    2
    10    40    39    2
    11    62    68   am
    12    68    69    1
    13    69    72    1
    14    41    42    1
    15    64    65    1
    16    43    42   ar
    17    43    45   ar
    18    42    44   ar
    19    72    73    1
    20    65    66    2
    21    65    67   am
    22    27    28    1
    23    28    29    1
    24    28    31    1
    25    73    74    1
    26    29    30    2
    27    45    46   ar
    28    20    21    2
    29    20    19    1
    30    44    47   ar
    31    44    46   ar
    32    80    79    2
    33    77    78    1
    34    33    35   ar
    35    33    32   ar
    36    47    49   ar
    37    19    18    1
    38    19    22    1
    39    31    32    1
    40    46    48   ar
    41    35    36   ar
    42    74    75   ar
    43    74    76   ar
    44    79    78    1
    45    32    34   ar
    46    97    95   am
    47    54    53    2
    48    89    90    1
    49    78    81    1
    50    53    52    1
    51    22    23    1
    52    85    83   ar
    53    85    87   ar
    54    83    82   ar
    55    49    50   ar
    56    94    95    1
    57    94    93    1
    58    36    34   ar
    59    88    87    1
    60    48    50   ar
    61    95    96    2
    62    51    52    1
    63    87    86   ar
    64    23    24    1
    65    82    81    1
    66    82    84   ar
    67    52    55    1
    68    90    93    1
    69    90    91    1
    70   116   114   ar
    71    86    84   ar
    72    55    56    1
    73    24    25    1
    74    91    92    2
    75   114   113    1
    76   114   115   ar
    77    25    26    1
    78   108   109    1
    79   113   112    1
    80    13    12    2
    81    56    57    1
    82    58    57    2
    83    12    11    1
    84    57    59   am
    85   112   109    1
    86   130   129   ar
    87   130   128   ar
    88   129   127   ar
    89   109   110    1
    90    11    10    1
    91    11    14    1
    92   105   107   ar
    93   105   103   ar
    94    98    99    1
    95   128   126   ar
    96     4     3    2
    97    10     3   am
    98   127   124   ar
    99   107   106   ar
   100   110   111    2
   101     3     2    1
   102     1     2    1
   103    14    15    1
   104     2     5    1
   105   103   102    1
   106   103   104   ar
   107    16    15    2
   108   126   124   ar
   109   126   125   ar
   110   124   122   ar
   111   102    99    1
   112    99   100    1
   113   106   104   ar
   114   101   100    2
   115    15    17   am
   116   125   123   ar
   117   122   121    1
   118   122   123   ar
   119     5     6    1
   120   144   143   ar
   121   144   142   ar
   122   121   118    1
   123     6     7    1
   124   117   118    1
   125   143   141   ar
   126   118   119    1
   127   142   140   ar
   128   141   138   ar
   129   140   138   ar
   130   140   139   ar
   131     7     9   ar
   132     7     8   ar
   133   119   120    2
   134   138   136   ar
   135   139   137   ar
   136   136   137   ar
   137   136   135    1
   138   135   132    1
   139   132   131    1
   140   132   133    1
   141   133   134    2
