@<TRIPOS>MOLECULE
tmp/1it0A01.pdb
 72 68 0 0 0
SMALL
GASTEIGER

@<TRIPOS>ATOM
      1  N          6.0070   37.3060   80.6620 N.3   399  ASP399     -0.1225
      2  CA         4.7040   36.9250   81.1830 C.3   399  ASP399      0.1805
      3  C          4.2260   37.8380   82.3120 C.2   399  ASP399      0.2598
      4  O          4.9700   38.1090   83.2560 O.2   399  ASP399     -0.2718
      5  CB         4.8160   35.4710   81.6680 C.3   399  ASP399      0.1424
      6  CG         3.5460   34.9480   82.2900 C.2   399  ASP399      0.3668
      7  OD1        3.2170   35.3640   83.4200 O.co2 399  ASP399     -0.2456
      8  OD2        2.8830   34.1110   81.6470 O.co2 399  ASP399     -0.2456
      9  N          2.9950   38.3290   82.1980 N.am  400  ALA400     -0.1966
     10  CA         2.4230   39.1830   83.2330 C.3   400  ALA400      0.1728
     11  C          1.8640   38.2360   84.2920 C.2   400  ALA400      0.2616
     12  O          0.8130   37.6370   84.0960 O.2   400  ALA400     -0.2715
     13  CB         1.3120   40.0490   82.6560 C.3   400  ALA400      0.0334
     14  N          2.5900   38.1080   85.3980 N.am  401  VAL401     -0.1963
     15  CA         2.2420   37.2260   86.5150 C.3   401  VAL401      0.1727
     16  C          0.7600   36.9640   86.7910 C.2   401  VAL401      0.2617
     17  O         -0.0290   37.8870   86.9730 O.2   401  VAL401     -0.2715
     18  CB         2.8860   37.7350   87.8230 C.3   401  VAL401      0.0290
     19  CG1        2.4670   36.8470   88.9970 C.3   401  VAL401      0.0023
     20  CG2        4.4060   37.7540   87.6740 C.3   401  VAL401      0.0023
     21  N          0.4100   35.6800   86.8350 N.am  402  GLY402     -0.1940
     22  CA        -0.9540   35.2670   87.1090 C.3   402  GLY402      0.2014
     23  C         -1.9950   35.8240   86.1650 C.2   402  GLY402      0.2639
     24  O         -3.1910   35.7390   86.4420 O.2   402  GLY402     -0.2714
     25  N         -1.5500   36.3920   85.0500 N.am  403  GLY403     -0.1954
     26  CA        -2.4830   36.9580   84.0930 C.3   403  GLY403      0.1869
     27  C         -3.0940   38.2600   84.5760 C.2   403  GLY403      0.2309
     28  O         -4.1000   38.7160   84.0320 O.2   403  GLY403     -0.2863
     29  N          7.4450   38.4520   84.6130 N.3   412  GLN412     -0.1245
     30  CA         8.3570   37.3350   84.8330 C.3   412  GLN412      0.1566
     31  C          8.5590   36.5580   83.5410 C.2   412  GLN412      0.2260
     32  O          7.9860   36.8970   82.5090 O.2   412  GLN412     -0.2867
     33  CB         7.7800   36.3770   85.8810 C.3   412  GLN412      0.0367
     34  CG         6.4280   35.7920   85.4720 C.3   412  GLN412      0.0905
     35  CD         5.9180   34.7150   86.4250 C.2   412  GLN412      0.2608
     36  OE1        6.4210   34.5620   87.5420 O.2   412  GLN412     -0.2717
     37  NE2        4.9040   33.9740   85.9870 N.am  412  GLN412     -0.0878
     38  N          8.1570   32.8810   81.6720 N.3   414  TYR414     -0.1241
     39  CA         7.3430   31.6870   81.8180 C.3   414  TYR414      0.1605
     40  C          7.2390   30.9630   80.4850 C.2   414  TYR414      0.2264
     41  O          7.3210   31.5870   79.4290 O.2   414  TYR414     -0.2867
     42  CB         5.9540   32.0680   82.3360 C.3   414  TYR414      0.0534
     43  CG         5.3200   30.9800   83.1670 C.ar  414  TYR414     -0.0201
     44  CD1        4.5610   29.9730   82.5730 C.ar  414  TYR414     -0.0009
     45  CD2        5.5400   30.9170   84.5420 C.ar  414  TYR414     -0.0009
     46  CE1        4.0400   28.9260   83.3300 C.ar  414  TYR414      0.0417
     47  CE2        5.0280   29.8770   85.3070 C.ar  414  TYR414      0.0417
     48  CZ         4.2800   28.8840   84.6940 C.ar  414  TYR414      0.1957
     49  OH         3.7850   27.8450   85.4480 O.3   414  TYR414     -0.2866
     50  N          2.9020   30.2800   76.0910 N.3   417  SER417     -0.1217
     51  CA         1.5820   29.6710   75.9960 C.3   417  SER417      0.1889
     52  C          0.6460   30.3760   75.0210 C.2   417  SER417      0.2288
     53  O         -0.4980   29.9600   74.8460 O.2   417  SER417     -0.2866
     54  CB         0.9330   29.6720   77.3790 C.3   417  SER417      0.2089
     55  OG         0.8190   31.0030   77.8670 O.3   417  SER417     -0.2183
     56  N         -1.5770   37.3790   78.2190 N.3   421  ASN421     -0.1225
     57  CA        -0.7020   38.0360   79.1900 C.3   421  ASN421      0.1785
     58  C          0.7480   37.8440   78.7470 C.2   421  ASN421      0.2597
     59  O          1.6850   38.2000   79.4650 O.2   421  ASN421     -0.2718
     60  CB        -0.9000   37.4300   80.5790 C.3   421  ASN421      0.1169
     61  CG        -0.4760   35.9780   80.6410 C.2   421  ASN421      0.2627
     62  OD1       -0.8250   35.1840   79.7680 O.2   421  ASN421     -0.2716
     63  ND2        0.2750   35.6210   81.6770 N.am  421  ASN421     -0.0877
     64  N          0.9130   37.2630   77.5620 N.am  422  GLN422     -0.1979
     65  CA         2.2270   37.0180   76.9850 C.3   422  GLN422      0.1601
     66  C          2.3020   37.6110   75.5940 C.2   422  GLN422      0.2287
     67  O          3.2680   37.3850   74.8650 O.2   422  GLN422     -0.2864
     68  CB         2.5200   35.5210   76.9040 C.3   422  GLN422      0.0394
     69  CG         2.7510   34.8650   78.2410 C.3   422  GLN422      0.0908
     70  CD         3.2580   33.4530   78.0970 C.2   422  GLN422      0.2608
     71  OE1        3.4910   32.9790   76.9860 O.2   422  GLN422     -0.2717
     72  NE2        3.4380   32.7680   79.2220 N.am  422  GLN422     -0.0878
@<TRIPOS>BOND
     1    53    52    2
     2    67    66    2
     3    52    51    1
     4    66    65    1
     5    51    50    1
     6    51    54    1
     7    68    65    1
     8    68    69    1
     9    65    64    1
    10    71    70    2
    11    54    55    1
    12    64    58   am
    13    70    69    1
    14    70    72   am
    15    56    57    1
    16    58    57    1
    17    58    59    2
    18    57    60    1
    19    41    40    2
    20    62    61    2
    21    40    39    1
    22    60    61    1
    23    61    63   am
    24     1     2    1
    25     2     5    1
    26     2     3    1
    27     8     6   ar
    28     5     6    1
    29    38    39    1
    30    39    42    1
    31     9     3   am
    32     9    10    1
    33     6     7   ar
    34     3     4    2
    35    42    43    1
    36    32    31    2
    37    44    43   ar
    38    44    46   ar
    39    13    10    1
    40    43    45   ar
    41    10    11    1
    42    46    48   ar
    43    31    30    1
    44    28    27    2
    45    26    27    1
    46    26    25    1
    47    12    11    2
    48    11    14   am
    49    45    47   ar
    50    29    30    1
    51    48    47   ar
    52    48    49    1
    53    30    33    1
    54    25    23   am
    55    14    15    1
    56    34    33    1
    57    34    35    1
    58    37    35   am
    59    23    24    2
    60    23    22    1
    61    35    36    2
    62    15    16    1
    63    15    18    1
    64    16    21   am
    65    16    17    2
    66    21    22    1
    67    20    18    1
    68    18    19    1
