@<TRIPOS>MOLECULE
tmp/1it3C00.pdb
 227 219 0 0 0
SMALL
GASTEIGER

@<TRIPOS>ATOM
      1  N         -2.2780   19.1950   -1.5350 N.3    41  PHE41      -0.1241
      2  CA        -1.9070   18.0170   -2.3110 C.3    41  PHE41       0.1605
      3  C         -0.4000   17.8510   -2.4420 C.2    41  PHE41       0.2264
      4  O          0.1090   16.7300   -2.4040 O.2    41  PHE41      -0.2867
      5  CB        -2.5510   18.0910   -3.7020 C.3    41  PHE41       0.0534
      6  CG        -1.7910   17.3550   -4.7720 C.ar   41  PHE41      -0.0203
      7  CD1       -1.9330   15.9760   -4.9250 C.ar   41  PHE41      -0.0042
      8  CD2       -0.9640   18.0430   -5.6550 C.ar   41  PHE41      -0.0042
      9  CE1       -1.2720   15.2940   -5.9400 C.ar   41  PHE41      -0.0003
     10  CE2       -0.2990   17.3670   -6.6760 C.ar   41  PHE41      -0.0003
     11  CZ        -0.4570   15.9920   -6.8160 C.ar   41  PHE41      -0.0000
     12  N          4.9150   13.9860   -5.7010 N.3    48  ALA48      -0.1245
     13  CA         4.2000   14.6700   -6.7730 C.3    48  ALA48       0.1562
     14  C          4.8490   16.0170   -7.0640 C.2    48  ALA48       0.2260
     15  O          4.7760   16.5190   -8.1850 O.2    48  ALA48      -0.2867
     16  CB         2.7390   14.8680   -6.3840 C.3    48  ALA48       0.0290
     17  N          7.3620   16.4920   -9.8500 N.3    51  SER51      -0.1202
     18  CA         6.7790   16.3740  -11.1820 C.3    51  SER51       0.2020
     19  C          6.7210   17.7120  -11.9030 C.2    51  SER51       0.2619
     20  O          6.7230   17.7600  -13.1350 O.2    51  SER51      -0.2717
     21  CB         5.3730   15.7870  -11.0920 C.3    51  SER51       0.2103
     22  OG         5.4010   14.3890  -11.2950 O.3    51  SER51      -0.2182
     23  N          6.6680   18.7950  -11.1330 N.am   52  PHE52      -0.1962
     24  CA         6.6060   20.1400  -11.7010 C.3    52  PHE52       0.1756
     25  C          7.9860   20.7860  -11.7660 C.2    52  PHE52       0.2461
     26  O          8.4970   21.2980  -10.7710 O.2    52  PHE52      -0.2730
     27  CB         5.6750   21.0230  -10.8720 C.3    52  PHE52       0.0574
     28  CG         4.2790   20.4910  -10.7620 C.ar   52  PHE52      -0.0200
     29  CD1        3.9610   19.5360   -9.8040 C.ar   52  PHE52      -0.0042
     30  CD2        3.2770   20.9580  -11.6040 C.ar   52  PHE52      -0.0042
     31  CE1        2.6670   19.0550   -9.6830 C.ar   52  PHE52      -0.0003
     32  CE2        1.9840   20.4840  -11.4900 C.ar   52  PHE52      -0.0003
     33  CZ         1.6770   19.5290  -10.5250 C.ar   52  PHE52      -0.0000
     34  N          8.6050   20.7800  -12.9540 N.am   53  PRO53      -0.2716
     35  CA         9.9330   21.3750  -13.1180 C.3    53  PRO53       0.1536
     36  C         10.0450   22.8700  -12.7920 C.2    53  PRO53       0.2598
     37  O         11.1450   23.3690  -12.5810 O.2    53  PRO53      -0.2715
     38  CB        10.2770   21.0870  -14.5830 C.3    53  PRO53       0.0310
     39  CG         8.9520   20.8490  -15.2570 C.3    53  PRO53       0.0237
     40  CD         8.0930   20.2050  -14.2130 C.3    53  PRO53       0.0939
     41  N          8.9190   23.5770  -12.7270 N.am   54  LYS54      -0.1978
     42  CA         8.9420   25.0200  -12.4740 C.3    54  LYS54       0.1596
     43  C          8.9030   25.4780  -11.0140 C.2    54  LYS54       0.2287
     44  O          9.2420   26.6280  -10.7100 O.2    54  LYS54      -0.2864
     45  CB         7.8140   25.6990  -13.2570 C.3    54  LYS54       0.0298
     46  CG         8.2070   26.1020  -14.6800 C.3    54  LYS54       0.0038
     47  CD         7.1040   25.8130  -15.6820 C.3    54  LYS54       0.0206
     48  CE         6.6070   27.0900  -16.3380 C.3    54  LYS54       0.1093
     49  NZ         5.1980   26.9650  -16.8220 N.3    54  LYS54      -0.1314
     50  N          0.3100   27.6400  -11.2900 N.3    71  GLN71      -0.1245
     51  CA        -0.2700   26.3400  -11.6490 C.3    71  GLN71       0.1566
     52  C         -1.6340   26.0840  -11.0050 C.2    71  GLN71       0.2260
     53  O         -2.4660   25.3640  -11.5590 O.2    71  GLN71      -0.2867
     54  CB         0.6930   25.2110  -11.2600 C.3    71  GLN71       0.0367
     55  CG         0.4750   23.9120  -12.0320 C.3    71  GLN71       0.0905
     56  CD         0.7790   24.0600  -13.5080 C.2    71  GLN71       0.2608
     57  OE1        1.7290   24.7290  -13.8880 O.2    71  GLN71      -0.2717
     58  NE2       -0.0320   23.4440  -14.3460 N.am   71  GLN71      -0.0878
     59  N         -4.2300   27.5860  -13.1560 N.3    74  VAL74      -0.1231
     60  CA        -4.2730   26.8610  -14.4220 C.3    74  VAL74       0.1692
     61  C         -5.2090   25.6450  -14.2510 C.2    74  VAL74       0.2591
     62  O         -5.9780   25.3050  -15.1520 O.2    74  VAL74      -0.2718
     63  CB        -2.8600   26.3590  -14.8130 C.3    74  VAL74       0.0266
     64  CG1       -2.9310   25.4710  -16.0180 C.3    74  VAL74       0.0020
     65  CG2       -1.9380   27.5470  -15.0730 C.3    74  VAL74       0.0020
     66  N         -5.1270   25.0000  -13.0860 N.am   75  ILE75      -0.1980
     67  CA        -5.9510   23.8360  -12.7460 C.3    75  ILE75       0.1595
     68  C         -7.4070   24.2700  -12.6130 C.2    75  ILE75       0.2287
     69  O         -8.3050   23.6450  -13.1770 O.2    75  ILE75      -0.2864
     70  CB        -5.5230   23.2240  -11.3850 C.3    75  ILE75       0.0276
     71  CG1       -4.2300   22.4330  -11.5450 C.3    75  ILE75       0.0022
     72  CG2       -6.6240   22.3230  -10.8360 C.3    75  ILE75       0.0022
     73  CD1       -3.5470   22.1160  -10.2330 C.3    75  ILE75       0.0001
     74  N         -9.1460   25.4170  -15.6780 N.3    78  LYS78      -0.1231
     75  CA        -9.5580   24.2540  -16.4510 C.3    78  LYS78       0.1693
     76  C        -10.7950   23.5860  -15.8720 C.2    78  LYS78       0.2591
     77  O        -11.6280   23.0870  -16.6210 O.2    78  LYS78      -0.2718
     78  CB        -8.4150   23.2400  -16.5300 C.3    78  LYS78       0.0285
     79  CG        -8.8080   21.9020  -17.1520 C.3    78  LYS78       0.0035
     80  CD        -9.6070   22.0790  -18.4410 C.3    78  LYS78       0.0206
     81  CE        -8.8430   21.5650  -19.6420 C.3    78  LYS78       0.1093
     82  NZ        -8.6510   22.6290  -20.6660 N.3    78  LYS78      -0.1314
     83  N        -10.9130   23.5730  -14.5460 N.am   79  VAL79      -0.1980
     84  CA       -12.0640   22.9620  -13.8810 C.3    79  VAL79       0.1595
     85  C        -13.3360   23.7730  -14.1520 C.2    79  VAL79       0.2287
     86  O        -14.4050   23.2030  -14.3550 O.2    79  VAL79      -0.2864
     87  CB       -11.8370   22.8460  -12.3460 C.3    79  VAL79       0.0276
     88  CG1      -13.1690   22.7200  -11.6160 C.3    79  VAL79       0.0022
     89  CG2      -10.9680   21.6360  -12.0420 C.3    79  VAL79       0.0022
     90  N        -14.3530   22.9030  -17.7540 N.3    82  ILE82      -0.1245
     91  CA       -14.9870   21.5880  -17.8610 C.3    82  ILE82       0.1561
     92  C        -16.4440   21.7200  -17.4240 C.2    82  ILE82       0.2260
     93  O        -17.3490   21.3100  -18.1380 O.2    82  ILE82      -0.2867
     94  CB       -14.2920   20.5450  -16.9380 C.3    82  ILE82       0.0252
     95  CG1      -12.9710   20.0960  -17.5580 C.3    82  ILE82       0.0019
     96  CG2      -15.2060   19.3380  -16.7040 C.3    82  ILE82       0.0019
     97  CD1      -11.8580   19.8900  -16.5400 C.3    82  ILE82       0.0001
     98  N        -10.1650   16.5080  -22.5870 N.3    96  LEU96      -0.1245
     99  CA        -9.4840   15.7850  -21.5120 C.3    96  LEU96       0.1561
    100  C         -8.6530   14.6040  -22.0200 C.2    96  LEU96       0.2260
    101  O         -7.6100   14.2780  -21.4460 O.2    96  LEU96      -0.2867
    102  CB       -10.4980   15.3190  -20.4620 C.3    96  LEU96       0.0270
    103  CG       -11.1800   16.4520  -19.6890 C.3    96  LEU96       0.0019
    104  CD1      -11.6350   15.9570  -18.3250 C.3    96  LEU96       0.0001
    105  CD2      -10.2160   17.6350  -19.5400 C.3    96  LEU96       0.0001
    106  N         -5.6720   16.3840  -23.0560 N.3    99  LEU99      -0.1245
    107  CA        -4.8680   16.7850  -21.9160 C.3    99  LEU99       0.1561
    108  C         -4.2230   15.5810  -21.2300 C.2    99  LEU99       0.2260
    109  O         -3.1730   15.7170  -20.6000 O.2    99  LEU99      -0.2867
    110  CB        -5.7230   17.5500  -20.9100 C.3    99  LEU99       0.0270
    111  CG        -4.9770   18.2760  -19.7980 C.3    99  LEU99       0.0019
    112  CD1       -3.9800   19.2480  -20.4000 C.3    99  LEU99       0.0001
    113  CD2       -5.9790   19.0030  -18.9130 C.3    99  LEU99       0.0001
    114  N         -1.0820   14.7450  -23.0820 N.3   102  LYS102     -0.1231
    115  CA        -0.0760   15.7640  -22.8100 C.3   102  LYS102      0.1693
    116  C          0.5810   15.4960  -21.4610 C.2   102  LYS102      0.2592
    117  O          1.8020   15.5810  -21.3300 O.2   102  LYS102     -0.2718
    118  CB        -0.7100   17.1570  -22.8010 C.3   102  LYS102      0.0285
    119  CG         0.2300   18.2480  -23.2580 C.3   102  LYS102      0.0035
    120  CD        -0.5230   19.3550  -23.9620 C.3   102  LYS102      0.0206
    121  CE         0.0390   19.6080  -25.3540 C.3   102  LYS102      0.1093
    122  NZ        -0.8290   20.5290  -26.1480 N.3   102  LYS102     -0.1314
    123  N         -0.2320   15.1640  -20.4620 N.am  103  HIS103     -0.1976
    124  CA         0.2810   14.8850  -19.1250 C.3   103  HIS103      0.1656
    125  C          1.2690   13.7210  -19.1390 C.2   103  HIS103      0.2291
    126  O          2.3120   13.7670  -18.4870 O.2   103  HIS103     -0.2864
    127  CB        -0.8720   14.5620  -18.1760 C.3   103  HIS103      0.0771
    128  CG        -1.3200   15.8690  -17.5200 C.ar  103  HIS103      0.0820
    129  ND1       -2.2300   16.7490  -18.1080 N.ar  103  HIS103     -0.2267
    130  CD2       -0.9210   16.3350  -16.2510 C.ar  103  HIS103      0.1154
    131  CE1       -2.3940   17.7000  -17.1650 C.ar  103  HIS103      0.1986
    132  NE2       -1.6600   17.5230  -16.1060 N.ar  103  HIS103     -0.2212
    133  N          4.5710   16.1430  -20.3490 N.3   107  PHE107     -0.1241
    134  CA         4.8780   16.4320  -18.9490 C.3   107  PHE107      0.1605
    135  C          5.4990   15.2610  -18.1760 C.2   107  PHE107      0.2264
    136  O          5.9890   15.4320  -17.0550 O.2   107  PHE107     -0.2867
    137  CB         3.6080   16.9130  -18.2310 C.3   107  PHE107      0.0534
    138  CG         2.9300   18.0800  -18.9070 C.ar  107  PHE107     -0.0203
    139  CD1        1.5460   18.2330  -18.8370 C.ar  107  PHE107     -0.0042
    140  CD2        3.6700   19.0290  -19.6080 C.ar  107  PHE107     -0.0042
    141  CE1        0.9110   19.3150  -19.4560 C.ar  107  PHE107     -0.0003
    142  CE2        3.0420   20.1170  -20.2320 C.ar  107  PHE107     -0.0003
    143  CZ         1.6640   20.2580  -20.1550 C.ar  107  PHE107     -0.0000
    144  N          4.2680   12.7960  -16.4760 N.3   109  VAL109     -0.1245
    145  CA         3.6920   12.6870  -15.1390 C.3   109  VAL109      0.1561
    146  C          2.9780   11.3340  -15.0180 C.2   109  VAL109      0.2260
    147  O          2.3320   10.8870  -15.9640 O.2   109  VAL109     -0.2867
    148  CB         2.7050   13.8660  -14.8670 C.3   109  VAL109      0.0252
    149  CG1        1.2830   13.3670  -14.7510 C.3   109  VAL109      0.0019
    150  CG2        3.1110   14.5950  -13.5970 C.3   109  VAL109      0.0019
    151  N         -1.5170   10.2130   -9.5630 N.3   113  TRP113     -0.1227
    152  CA        -1.8650   11.4570   -8.8780 C.3   113  TRP113      0.1737
    153  C         -3.2020   12.1380   -9.1270 C.2   113  TRP113      0.2595
    154  O         -3.7700   12.7090   -8.2010 O.2   113  TRP113     -0.2718
    155  CB        -0.7410   12.4680   -9.0960 C.3   113  TRP113      0.0564
    156  CG         0.5990   11.8800   -8.7800 C.ar  113  TRP113      0.0003
    157  CD1        1.6430   11.6860   -9.6420 C.ar  113  TRP113      0.0946
    158  CD2        1.0340   11.3920   -7.5050 C.ar  113  TRP113      0.0152
    159  NE1        2.7010   11.1080   -8.9780 N.ar  113  TRP113     -0.2442
    160  CE2        2.3520   10.9170   -7.6660 C.ar  113  TRP113      0.0810
    161  CE3        0.4340   11.3110   -6.2400 C.ar  113  TRP113      0.0012
    162  CZ2        3.0820   10.3690   -6.6090 C.ar  113  TRP113      0.0191
    163  CZ3        1.1590   10.7670   -5.1890 C.ar  113  TRP113      0.0001
    164  CH2        2.4700   10.3030   -5.3810 C.ar  113  TRP113      0.0015
    165  N         -3.7010   12.1010  -10.3590 N.am  114  PHE114     -0.1976
    166  CA        -4.9780   12.7410  -10.6820 C.3   114  PHE114      0.1639
    167  C         -6.0400   12.5030   -9.6160 C.2   114  PHE114      0.2290
    168  O         -6.6900   13.4410   -9.1440 O.2   114  PHE114     -0.2864
    169  CB        -5.5110   12.2230  -12.0120 C.3   114  PHE114      0.0560
    170  CG        -4.5830   12.4300  -13.1520 C.ar  114  PHE114     -0.0200
    171  CD1       -4.0730   11.3410  -13.8530 C.ar  114  PHE114     -0.0042
    172  CD2       -4.2210   13.7130  -13.5410 C.ar  114  PHE114     -0.0042
    173  CE1       -3.2160   11.5230  -14.9260 C.ar  114  PHE114     -0.0003
    174  CE2       -3.3600   13.9130  -14.6160 C.ar  114  PHE114     -0.0003
    175  CZ        -2.8560   12.8110  -15.3120 C.ar  114  PHE114     -0.0000
    176  N         -5.2930   14.4490   -6.1340 N.3   117  LEU117     -0.1231
    177  CA        -5.4990   15.8940   -6.2350 C.3   117  LEU117      0.1693
    178  C         -6.9970   16.2470   -6.2360 C.2   117  LEU117      0.2592
    179  O         -7.4180   17.2400   -5.6430 O.2   117  LEU117     -0.2718
    180  CB        -4.8650   16.4160   -7.5250 C.3   117  LEU117      0.0284
    181  CG        -4.3490   17.8570   -7.5540 C.3   117  LEU117      0.0019
    182  CD1       -4.4370   18.3880   -8.9710 C.3   117  LEU117      0.0001
    183  CD2       -5.1380   18.7210   -6.6030 C.3   117  LEU117      0.0001
    184  N         -7.7870   15.4210   -6.9140 N.am  118  SER118     -0.1952
    185  CA        -9.2250   15.6120   -7.0270 C.3   118  SER118      0.1924
    186  C         -9.9400   15.3820   -5.7090 C.2   118  SER118      0.2314
    187  O        -10.7750   16.1850   -5.3090 O.2   118  SER118     -0.2863
    188  CB        -9.7840   14.6680   -8.0890 C.3   118  SER118      0.2116
    189  OG        -9.3440   15.0590   -9.3810 O.3   118  SER118     -0.2180
    190  N         -9.4060   18.1410   -3.7290 N.3   121  PHE121     -0.1241
    191  CA       -10.1050   19.2670   -4.3580 C.3   121  PHE121      0.1605
    192  C        -11.5600   19.2350   -3.8820 C.2   121  PHE121      0.2264
    193  O        -12.0220   20.1570   -3.2200 O.2   121  PHE121     -0.2867
    194  CB       -10.0420   19.1160   -5.8880 C.3   121  PHE121      0.0534
    195  CG       -10.4320   20.3620   -6.6580 C.ar  121  PHE121     -0.0203
    196  CD1      -11.7260   20.8740   -6.5870 C.ar  121  PHE121     -0.0042
    197  CD2       -9.5040   21.0090   -7.4740 C.ar  121  PHE121     -0.0042
    198  CE1      -12.0920   22.0120   -7.3170 C.ar  121  PHE121     -0.0003
    199  CE2       -9.8570   22.1430   -8.2060 C.ar  121  PHE121     -0.0003
    200  CZ       -11.1530   22.6460   -8.1270 C.ar  121  PHE121     -0.0000
    201  N        -15.7020   14.5880  -10.8060 N.3   135  PHE135     -0.1241
    202  CA       -14.2750   14.3250  -10.7670 C.3   135  PHE135      0.1605
    203  C        -13.8500   12.9010  -11.1220 C.2   135  PHE135      0.2264
    204  O        -12.6810   12.6680  -11.4240 O.2   135  PHE135     -0.2867
    205  CB       -13.7060   14.7540   -9.4210 C.3   135  PHE135      0.0534
    206  CG       -13.2450   16.1890   -9.4020 C.ar  135  PHE135     -0.0203
    207  CD1      -14.0510   17.1880   -8.8600 C.ar  135  PHE135     -0.0042
    208  CD2      -12.0040   16.5430   -9.9320 C.ar  135  PHE135     -0.0042
    209  CE1      -13.6290   18.5240   -8.8410 C.ar  135  PHE135     -0.0003
    210  CE2      -11.5710   17.8730   -9.9200 C.ar  135  PHE135     -0.0003
    211  CZ       -12.3840   18.8630   -9.3740 C.ar  135  PHE135     -0.0000
    212  N        -13.4140   13.2960  -14.8300 N.3   138  ILE138     -0.1245
    213  CA       -12.1750   14.0170  -15.1080 C.3   138  ILE138      0.1561
    214  C        -10.9420   13.1190  -14.9610 C.2   138  ILE138      0.2260
    215  O        -10.0700   13.1200  -15.8310 O.2   138  ILE138     -0.2867
    216  CB       -12.0020   15.2490  -14.1800 C.3   138  ILE138      0.0252
    217  CG1      -13.1470   16.2400  -14.3800 C.3   138  ILE138      0.0019
    218  CG2      -10.7050   15.9620  -14.5110 C.3   138  ILE138      0.0019
    219  CD1      -13.0880   17.4360  -13.4470 C.3   138  ILE138      0.0001
    220  N         -8.5730   11.7160  -17.5700 N.3   142  LEU142     -0.1245
    221  CA        -7.1720   12.1210  -17.4990 C.3   142  LEU142      0.1561
    222  C         -6.1900   10.9320  -17.5080 C.2   142  LEU142      0.2260
    223  O         -5.0910   11.0370  -18.0530 O.2   142  LEU142     -0.2867
    224  CB        -6.9320   12.9990  -16.2600 C.3   142  LEU142      0.0270
    225  CG        -7.1350   14.5120  -16.4360 C.3   142  LEU142      0.0019
    226  CD1       -6.8880   15.2050  -15.1090 C.3   142  LEU142      0.0001
    227  CD2       -6.1990   15.0670  -17.5130 C.3   142  LEU142      0.0001
@<TRIPOS>BOND
     1   122   121    1
     2   121   120    1
     3   120   119    1
     4   119   118    1
     5   114   115    1
     6   106   107    1
     7   115   118    1
     8   115   116    1
     9    98    99    1
    10   100    99    1
    11   100   101    2
    12   107   108    1
    13   107   110    1
    14    99   102    1
    15   116   117    2
    16   116   123   am
    17   108   109    2
    18   110   111    1
    19    82    81    1
    20   102   103    1
    21   123   124    1
    22   112   111    1
    23   133   134    1
    24   142   143   ar
    25   142   140   ar
    26   143   141   ar
    27   111   113    1
    28   103   105    1
    29   103   104    1
    30    81    80    1
    31   140   138   ar
    32   141   139   ar
    33   125   124    1
    34   125   126    2
    35   124   127    1
    36   134   137    1
    37   134   135    1
    38   138   139   ar
    39   138   137    1
    40    80    79    1
    41   127   128    1
    42   135   136    2
    43    93    92    2
    44   129   128   ar
    45   129   131   ar
    46   223   222    2
    47    91    90    1
    48    91    92    1
    49    91    94    1
    50   220   221    1
    51    95    94    1
    52    95    97    1
    53   128   130   ar
    54   227   225    1
    55   222   221    1
    56   221   224    1
    57   131   132   ar
    58    79    78    1
    59    94    96    1
    60    49    48    1
    61    77    76    2
    62    78    75    1
    63   144   145    1
    64    75    76    1
    65    75    74    1
    66   225   224    1
    67   225   226    1
    68    48    47    1
    69   130   132   ar
    70    64    63    1
    71   147   146    2
    72    76    83   am
    73   215   214    2
    74    47    46    1
    75   175   173   ar
    76   175   174   ar
    77    39    38    1
    78    39    40    1
    79    62    61    2
    80   145   146    1
    81   145   148    1
    82   213   214    1
    83   213   212    1
    84   213   216    1
    85    65    63    1
    86   173   171   ar
    87   148   149    1
    88   148   150    1
    89    63    60    1
    90    46    45    1
    91   174   172   ar
    92    38    35    1
    93    83    84    1
    94   218   216    1
    95    60    61    1
    96    60    59    1
    97   217   216    1
    98   217   219    1
    99    86    85    2
   100    58    56   am
   101    61    66   am
   102    40    34    1
   103    85    84    1
   104    57    56    2
   105    84    87    1
   106   171   170   ar
   107   172   170   ar
   108    56    55    1
   109    45    42    1
   110    69    68    2
   111   170   169    1
   112    20    19    2
   113    35    34    1
   114    35    36    1
   115    66    67    1
   116    34    25   am
   117    36    41   am
   118    36    37    2
   119    67    68    1
   120    67    70    1
   121    41    42    1
   122    42    43    1
   123    87    89    1
   124    87    88    1
   125    55    54    1
   126   169   166    1
   127    19    18    1
   128    19    23   am
   129    25    24    1
   130    25    26    2
   131    24    23    1
   132    24    27    1
   133    51    50    1
   134    51    54    1
   135    51    52    1
   136    30    32   ar
   137    30    28   ar
   138    53    52    2
   139    71    70    1
   140    71    73    1
   141    32    33   ar
   142   204   203    2
   143    70    72    1
   144    22    21    1
   145    18    21    1
   146    18    17    1
   147   203   202    1
   148    43    44    2
   149    27    28    1
   150   201   202    1
   151   202   205    1
   152    28    29   ar
   153   166   165    1
   154   166   167    1
   155    33    31   ar
   156   165   153   am
   157   208   210   ar
   158   208   206   ar
   159   210   211   ar
   160    29    31   ar
   161   157   159   ar
   162   157   156   ar
   163   167   168    2
   164   151   152    1
   165   205   206    1
   166   206   207   ar
   167   189   188    1
   168   211   209   ar
   169   153   152    1
   170   153   154    2
   171   155   152    1
   172   155   156    1
   173   159   160   ar
   174   182   181    1
   175   207   209   ar
   176   156   158   ar
   177   199   200   ar
   178   199   197   ar
   179    15    14    2
   180   200   198   ar
   181   188   185    1
   182   160   158   ar
   183   160   162   ar
   184   181   180    1
   185   181   183    1
   186   180   177    1
   187   158   161   ar
   188   197   195   ar
   189   198   196   ar
   190    14    13    1
   191   185   184    1
   192   185   186    1
   193   184   178   am
   194    11    10   ar
   195    11     9   ar
   196    13    16    1
   197    13    12    1
   198    10     8   ar
   199   195   196   ar
   200   195   194    1
   201   162   164   ar
   202   161   163   ar
   203   178   177    1
   204   178   179    2
   205   177   176    1
   206     9     7   ar
   207   194   191    1
   208   186   187    2
   209     8     6   ar
   210   164   163   ar
   211     7     6   ar
   212     6     5    1
   213   191   192    1
   214   191   190    1
   215   192   193    2
   216     5     2    1
   217     3     4    2
   218     3     2    1
   219     2     1    1
