@<TRIPOS>MOLECULE
tmp/1it7A00.pdb
 116 108 0 0 0
SMALL
GASTEIGER

@<TRIPOS>ATOM
      1  N         41.2440   42.3770   80.7900 N.3    90  ASP90      -0.1239
      2  CA        40.6840   41.0520   80.5700 C.3    90  ASP90       0.1674
      3  C         41.7150   39.9940   80.9630 C.2    90  ASP90       0.2266
      4  O         42.8970   40.2930   81.1390 O.2    90  ASP90      -0.2867
      5  CB        40.2610   40.8560   79.1200 C.3    90  ASP90       0.1410
      6  CG        39.0870   39.8980   78.9890 C.2    90  ASP90       0.3668
      7  OD1       38.8950   39.0580   79.8920 O.co2  90  ASP90      -0.2456
      8  OD2       38.3570   39.9810   77.9810 O.co2  90  ASP90      -0.2456
      9  N         40.6760   35.2120   78.2750 N.3    93  SER93      -0.1202
     10  CA        39.5610   34.3220   77.9480 C.3    93  SER93       0.2020
     11  C         39.2520   34.3790   76.4560 C.2    93  SER93       0.2618
     12  O         38.7810   33.4030   75.8610 O.2    93  SER93      -0.2717
     13  CB        38.3000   34.7260   78.7210 C.3    93  SER93       0.2103
     14  OG        38.4510   34.5270   80.1090 O.3    93  SER93      -0.2182
     15  N         39.5070   35.5330   75.8520 N.am   94  PHE94      -0.1975
     16  CA        39.2430   35.6920   74.4340 C.3    94  PHE94       0.1639
     17  C         40.2390   34.8800   73.6210 C.2    94  PHE94       0.2290
     18  O         39.9110   34.3960   72.5430 O.2    94  PHE94      -0.2864
     19  CB        39.3010   37.1700   74.0250 C.3    94  PHE94       0.0560
     20  CG        38.7680   37.4280   72.6450 C.ar   94  PHE94      -0.0200
     21  CD1       37.5190   36.9370   72.2700 C.ar   94  PHE94      -0.0042
     22  CD2       39.5190   38.1290   71.7120 C.ar   94  PHE94      -0.0042
     23  CE1       37.0280   37.1360   70.9820 C.ar   94  PHE94      -0.0003
     24  CE2       39.0360   38.3350   70.4170 C.ar   94  PHE94      -0.0003
     25  CZ        37.7890   37.8370   70.0540 C.ar   94  PHE94      -0.0000
     26  N         38.9440   31.4010   73.6860 N.3    97  MET97      -0.1245
     27  CA        37.8880   31.1600   72.7130 C.3    97  MET97       0.1570
     28  C         38.4270   30.9280   71.2960 C.2    97  MET97       0.2261
     29  O         37.7560   30.3220   70.4600 O.2    97  MET97      -0.2867
     30  CB        36.9160   32.3480   72.7300 C.3    97  MET97       0.0387
     31  CG        35.7900   32.2840   71.7170 C.3    97  MET97       0.0595
     32  SD        34.5810   33.6220   71.9390 S.3    97  MET97      -0.1393
     33  CE        33.0560   32.6520   72.2450 C.3    97  MET97       0.0692
     34  N         39.6840   40.4380   85.8470 N.3   122  THR122     -0.1218
     35  CA        38.7850   39.4410   85.2830 C.3   122  THR122      0.1862
     36  C         39.4980   38.1010   85.3680 C.2   122  THR122      0.2287
     37  O         40.6900   38.0230   85.0640 O.2   122  THR122     -0.2866
     38  CB        38.4850   39.7500   83.7790 C.3   122  THR122      0.1770
     39  OG1       37.9720   41.0850   83.6540 O.3   122  THR122     -0.2211
     40  CG2       37.4670   38.7660   83.2030 C.3   122  THR122      0.0375
     41  N         37.3860   33.0570   82.8400 N.3   125  ASP125     -0.1239
     42  CA        36.0780   32.4780   82.5540 C.3   125  ASP125      0.1674
     43  C         36.1400   31.9110   81.1280 C.2   125  ASP125      0.2266
     44  O         36.8250   32.4710   80.2660 O.2   125  ASP125     -0.2867
     45  CB        34.9870   33.5540   82.6830 C.3   125  ASP125      0.1410
     46  CG        35.1550   34.6950   81.6880 C.2   125  ASP125      0.3668
     47  OD1       34.7430   34.5450   80.5160 O.co2 125  ASP125     -0.2456
     48  OD2       35.7070   35.7460   82.0800 O.co2 125  ASP125     -0.2456
     49  N         34.5990   31.2350   77.5130 N.3   127  PRO127     -0.2116
     50  CA        33.5830   31.6800   76.5530 C.3   127  PRO127      0.1372
     51  C         33.0360   30.5910   75.6370 C.2   127  PRO127      0.2244
     52  O         33.3490   30.5600   74.4480 O.2   127  PRO127     -0.2868
     53  CB        34.3050   32.7700   75.7570 C.3   127  PRO127      0.0268
     54  CG        35.4830   33.1550   76.6320 C.3   127  PRO127      0.0207
     55  CD        35.9030   31.8330   77.1850 C.3   127  PRO127      0.0892
     56  N         32.0050   36.9030   84.7380 N.3   162  THR162     -0.1218
     57  CA        31.2450   36.7050   83.5000 C.3   162  THR162      0.1862
     58  C         30.3140   35.4900   83.4510 C.2   162  THR162      0.2287
     59  O         30.6890   34.3940   83.8560 O.2   162  THR162     -0.2866
     60  CB        32.2060   36.5870   82.3090 C.3   162  THR162      0.1770
     61  OG1       33.1750   37.6380   82.3710 O.3   162  THR162     -0.2211
     62  CG2       31.4460   36.6640   80.9970 C.3   162  THR162      0.0375
     63  N         28.3490   32.6160   81.4650 N.3   164  GLN164     -0.1245
     64  CA        28.5290   31.8500   80.2400 C.3   164  GLN164      0.1566
     65  C         27.3270   30.9120   80.1120 C.2   164  GLN164      0.2260
     66  O         26.2390   31.2250   80.5970 O.2   164  GLN164     -0.2867
     67  CB        29.8370   31.0520   80.3090 C.3   164  GLN164      0.0367
     68  CG        31.0890   31.9060   80.4960 C.3   164  GLN164      0.0905
     69  CD        31.4390   32.6890   79.2490 C.2   164  GLN164      0.2608
     70  OE1       30.6610   32.7400   78.3040 O.2   164  GLN164     -0.2717
     71  NE2       32.6100   33.3100   79.2420 N.am  164  GLN164     -0.0878
     72  N         29.2110   36.8500   78.6880 N.3   190  GLY190     -0.1210
     73  CA        30.0890   36.4230   77.6170 C.3   190  GLY190      0.1956
     74  C         29.5750   35.4020   76.6340 C.2   190  GLY190      0.2612
     75  O         28.4150   34.9880   76.6780 O.2   190  GLY190     -0.2717
     76  N         30.4730   35.0180   75.7300 N.am  191  GLY191     -0.1942
     77  CA        30.1830   34.0420   74.7000 C.3   191  GLY191      0.2014
     78  C         29.4460   34.5990   73.5020 C.2   191  GLY191      0.2639
     79  O         29.3240   33.9200   72.4770 O.2   191  GLY191     -0.2714
     80  N         28.9840   35.8410   73.6080 N.am  192  VAL192     -0.1963
     81  CA        28.2080   36.4580   72.5390 C.3   192  VAL192      0.1727
     82  C         28.9460   37.0400   71.3380 C.2   192  VAL192      0.2616
     83  O         28.3210   37.3220   70.3210 O.2   192  VAL192     -0.2715
     84  CB        27.2890   37.5470   73.1130 C.3   192  VAL192      0.0290
     85  CG1       26.3940   36.9440   74.1800 C.3   192  VAL192      0.0023
     86  CG2       28.1230   38.6920   73.7050 C.3   192  VAL192      0.0023
     87  N         30.2590   37.2160   71.4260 N.am  193  VAL193     -0.1977
     88  CA        30.9980   37.7920   70.3010 C.3   193  VAL193      0.1596
     89  C         30.6660   37.1830   68.9310 C.2   193  VAL193      0.2287
     90  O         30.3920   37.9130   67.9690 O.2   193  VAL193     -0.2864
     91  CB        32.5300   37.7380   70.5410 C.3   193  VAL193      0.0276
     92  CG1       33.2860   37.9930   69.2330 C.3   193  VAL193      0.0022
     93  CG2       32.9100   38.7960   71.5550 C.3   193  VAL193      0.0022
     94  N         30.2390   41.7370   76.9250 N.3   224  PHE224     -0.1227
     95  CA        31.5490   41.5500   76.3030 C.3   224  PHE224      0.1736
     96  C         31.5270   41.5300   74.7910 C.2   224  PHE224      0.2596
     97  O         30.7540   40.8010   74.1880 O.2   224  PHE224     -0.2718
     98  CB        32.2010   40.2650   76.8170 C.3   224  PHE224      0.0547
     99  CG        33.2440   40.4940   77.8770 C.ar  224  PHE224     -0.0202
    100  CD1       33.2290   39.7500   79.0590 C.ar  224  PHE224     -0.0042
    101  CD2       34.2580   41.4250   77.6830 C.ar  224  PHE224     -0.0042
    102  CE1       34.2140   39.9300   80.0350 C.ar  224  PHE224     -0.0003
    103  CE2       35.2480   41.6140   78.6520 C.ar  224  PHE224     -0.0003
    104  CZ        35.2270   40.8630   79.8300 C.ar  224  PHE224     -0.0000
    105  N         32.3810   42.3480   74.1820 N.am  225  GLY225     -0.1957
    106  CA        32.4570   42.4000   72.7310 C.3   225  GLY225      0.1869
    107  C         31.4350   43.2610   72.0000 C.2   225  GLY225      0.2309
    108  O         31.5550   43.4650   70.7920 O.2   225  GLY225     -0.2863
    109  N         32.4370   47.2150   75.6040 N.3   244  ASP244     -0.1239
    110  CA        33.8510   47.3740   75.3110 C.3   244  ASP244      0.1674
    111  C         33.9600   47.2670   73.7960 C.2   244  ASP244      0.2266
    112  O         33.1940   46.5340   73.1650 O.2   244  ASP244     -0.2867
    113  CB        34.6880   46.3010   76.0250 C.3   244  ASP244      0.1410
    114  CG        34.6040   44.9470   75.3600 C.2   244  ASP244      0.3668
    115  OD1       35.4590   44.6610   74.4940 O.co2 244  ASP244     -0.2456
    116  OD2       33.6840   44.1740   75.7000 O.co2 244  ASP244     -0.2456
@<TRIPOS>BOND
     1    90    89    2
     2    89    88    1
     3    92    91    1
     4    25    24   ar
     5    25    23   ar
     6    88    91    1
     7    88    87    1
     8    83    82    2
     9    24    22   ar
    10    29    28    2
    11    91    93    1
    12   108   107    2
    13    23    21   ar
    14    28    27    1
    15    82    87   am
    16    82    81    1
    17    22    20   ar
    18    31    32    1
    19    31    30    1
    20    32    33    1
    21   107   106    1
    22    21    20   ar
    23    79    78    2
    24    81    84    1
    25    81    80    1
    26    18    17    2
    27    20    19    1
    28    27    30    1
    29    27    26    1
    30   106   105    1
    31    84    86    1
    32    84    85    1
    33   112   111    2
    34    78    80   am
    35    78    77    1
    36    17    16    1
    37   111   110    1
    38    19    16    1
    39   105    96   am
    40    97    96    2
    41    16    15    1
    42    52    51    2
    43   115   114   ar
    44    77    76    1
    45    96    95    1
    46   110   109    1
    47   110   113    1
    48   114   116   ar
    49   114   113    1
    50    51    50    1
    51    76    74   am
    52    53    50    1
    53    53    54    1
    54    15    11   am
    55    12    11    2
    56    95    98    1
    57    95    94    1
    58    11    10    1
    59    50    49    1
    60    54    55    1
    61    74    75    2
    62    74    73    1
    63    98    99    1
    64    55    49    1
    65    73    72    1
    66   101    99   ar
    67   101   103   ar
    68    99   100   ar
    69    10     9    1
    70    10    13    1
    71     8     6   ar
    72    70    69    2
    73   103   104   ar
    74    13    14    1
    75     6     5    1
    76     6     7   ar
    77   100   102   ar
    78     5     2    1
    79    71    69   am
    80    69    68    1
    81   104   102   ar
    82    65    64    1
    83    65    66    2
    84    64    67    1
    85    64    63    1
    86    44    43    2
    87    67    68    1
    88    47    46   ar
    89     2     1    1
    90     2     3    1
    91     3     4    2
    92    62    60    1
    93    43    42    1
    94    46    48   ar
    95    46    45    1
    96    60    61    1
    97    60    57    1
    98    42    45    1
    99    42    41    1
   100    40    38    1
   101    58    57    1
   102    58    59    2
   103    57    56    1
   104    39    38    1
   105    38    35    1
   106    37    36    2
   107    35    36    1
   108    35    34    1
