@<TRIPOS>MOLECULE
tmp/1it8A00.pdb
 116 108 0 0 0
SMALL
GASTEIGER

@<TRIPOS>ATOM
      1  N         40.9580   42.8610   81.3210 N.3    90  ASP90      -0.1239
      2  CA        40.3870   41.5420   81.0740 C.3    90  ASP90       0.1674
      3  C         41.3900   40.4580   81.3970 C.2    90  ASP90       0.2266
      4  O         42.5930   40.7070   81.4500 O.2    90  ASP90      -0.2867
      5  CB        39.9170   41.3770   79.6370 C.3    90  ASP90       0.1410
      6  CG        38.6820   40.4910   79.5420 C.2    90  ASP90       0.3668
      7  OD1       38.5660   39.5620   80.3730 O.co2  90  ASP90      -0.2456
      8  OD2       37.8300   40.7160   78.6490 O.co2  90  ASP90      -0.2456
      9  N         40.2260   35.6230   78.8580 N.3    93  SER93      -0.1202
     10  CA        39.1160   34.7200   78.5600 C.3    93  SER93       0.2020
     11  C         38.7670   34.7760   77.0840 C.2    93  SER93       0.2618
     12  O         38.4360   33.7600   76.4820 O.2    93  SER93      -0.2717
     13  CB        37.8740   35.1030   79.3620 C.3    93  SER93       0.2103
     14  OG        38.1130   34.9930   80.7480 O.3    93  SER93      -0.2182
     15  N         38.8340   35.9680   76.4990 N.am   94  PHE94      -0.1975
     16  CA        38.5100   36.1010   75.0910 C.3    94  PHE94       0.1639
     17  C         39.5240   35.3200   74.2830 C.2    94  PHE94       0.2290
     18  O         39.1690   34.6900   73.2890 O.2    94  PHE94      -0.2864
     19  CB        38.5080   37.5630   74.6510 C.3    94  PHE94       0.0560
     20  CG        37.9450   37.7710   73.2770 C.ar   94  PHE94      -0.0200
     21  CD1       36.6660   37.3110   72.9610 C.ar   94  PHE94      -0.0042
     22  CD2       38.6880   38.4030   72.2940 C.ar   94  PHE94      -0.0042
     23  CE1       36.1390   37.4760   71.6780 C.ar   94  PHE94      -0.0003
     24  CE2       38.1660   38.5730   71.0050 C.ar   94  PHE94      -0.0003
     25  CZ        36.8900   38.1060   70.7000 C.ar   94  PHE94      -0.0000
     26  N         38.6000   31.9060   74.3460 N.3    97  MET97      -0.1245
     27  CA        37.4600   31.5800   73.4960 C.3    97  MET97       0.1570
     28  C         37.9320   31.4270   72.0460 C.2    97  MET97       0.2261
     29  O         37.5930   30.4640   71.3660 O.2    97  MET97      -0.2867
     30  CB        36.4020   32.6870   73.6050 C.3    97  MET97       0.0387
     31  CG        35.1590   32.4830   72.7540 C.3    97  MET97       0.0595
     32  SD        34.0590   33.9190   72.8320 S.3    97  MET97      -0.1393
     33  CE        32.4970   33.1470   73.2010 C.3    97  MET97       0.0692
     34  N         39.1750   40.9760   86.3940 N.3   122  THR122     -0.1218
     35  CA        38.3170   39.9400   85.8290 C.3   122  THR122      0.1862
     36  C         39.0650   38.6080   85.9630 C.2   122  THR122      0.2287
     37  O         40.2790   38.5560   85.7320 O.2   122  THR122     -0.2866
     38  CB        38.0550   40.1960   84.3330 C.3   122  THR122      0.1770
     39  OG1       37.6040   41.5430   84.1380 O.3   122  THR122     -0.2211
     40  CG2       37.0070   39.2300   83.8130 C.3   122  THR122      0.0375
     41  N         37.0120   33.4590   83.6460 N.3   125  ASP125     -0.1239
     42  CA        35.7320   32.8430   83.3070 C.3   125  ASP125      0.1674
     43  C         35.8400   32.2420   81.8990 C.2   125  ASP125      0.2266
     44  O         36.5660   32.7610   81.0460 O.2   125  ASP125     -0.2867
     45  CB        34.6170   33.8860   83.3550 C.3   125  ASP125      0.1410
     46  CG        34.8300   35.0160   82.3650 C.2   125  ASP125      0.3668
     47  OD1       34.5460   34.8390   81.1620 O.co2 125  ASP125     -0.2456
     48  OD2       35.2920   36.0890   82.7910 O.co2 125  ASP125     -0.2456
     49  N         34.2820   31.5540   78.3440 N.3   127  PRO127     -0.2116
     50  CA        33.2580   31.9680   77.3820 C.3   127  PRO127      0.1372
     51  C         32.8140   30.7730   76.5350 C.2   127  PRO127      0.2244
     52  O         33.4540   30.4400   75.5350 O.2   127  PRO127     -0.2868
     53  CB        33.9750   33.0250   76.5400 C.3   127  PRO127      0.0268
     54  CG        35.0650   33.5330   77.4370 C.3   127  PRO127      0.0207
     55  CD        35.5490   32.2680   78.0940 C.3   127  PRO127      0.0892
     56  N         31.6820   37.4140   85.4130 N.3   162  THR162     -0.1218
     57  CA        30.9860   37.1510   84.1530 C.3   162  THR162      0.1862
     58  C         29.9630   36.0040   84.1280 C.2   162  THR162      0.2287
     59  O         30.2080   34.9170   84.6530 O.2   162  THR162     -0.2866
     60  CB        32.0360   36.9230   83.0480 C.3   162  THR162      0.1770
     61  OG1       32.8080   38.1160   82.8950 O.3   162  THR162     -0.2211
     62  CG2       31.3840   36.5640   81.7220 C.3   162  THR162      0.0375
     63  N         28.1080   33.1470   82.1970 N.3   164  GLN164     -0.1245
     64  CA        28.2490   32.3190   81.0050 C.3   164  GLN164      0.1566
     65  C         27.0750   31.3540   80.8610 C.2   164  GLN164      0.2260
     66  O         26.0120   31.5520   81.4520 O.2   164  GLN164     -0.2867
     67  CB        29.5570   31.5330   81.0570 C.3   164  GLN164      0.0367
     68  CG        30.8080   32.3910   81.1010 C.3   164  GLN164      0.0905
     69  CD        31.0280   33.1620   79.8240 C.2   164  GLN164      0.2608
     70  OE1       30.3150   32.9770   78.8330 O.2   164  GLN164     -0.2717
     71  NE2       32.0340   34.0210   79.8300 N.am  164  GLN164     -0.0878
     72  N         28.8740   37.2180   79.4080 N.3   190  GLY190     -0.1210
     73  CA        29.7920   36.7130   78.4050 C.3   190  GLY190      0.1956
     74  C         29.2600   35.8290   77.3000 C.2   190  GLY190      0.2612
     75  O         28.0800   35.4800   77.2610 O.2   190  GLY190     -0.2717
     76  N         30.1650   35.4870   76.3870 N.am  191  GLY191     -0.1942
     77  CA        29.8400   34.6230   75.2740 C.3   191  GLY191      0.2014
     78  C         28.9640   35.1530   74.1570 C.2   191  GLY191      0.2639
     79  O         28.5630   34.3730   73.2990 O.2   191  GLY191     -0.2714
     80  N         28.6640   36.4490   74.1220 N.am  192  VAL192     -0.1963
     81  CA        27.8050   36.9500   73.0540 C.3   192  VAL192      0.1727
     82  C         28.5070   37.5670   71.8460 C.2   192  VAL192      0.2616
     83  O         27.8780   37.7500   70.8020 O.2   192  VAL192     -0.2715
     84  CB        26.7420   37.9440   73.5940 C.3   192  VAL192      0.0290
     85  CG1       25.7930   37.2100   74.5220 C.3   192  VAL192      0.0023
     86  CG2       27.4050   39.0990   74.3240 C.3   192  VAL192      0.0023
     87  N         29.8000   37.8610   71.9600 N.am  193  VAL193     -0.1977
     88  CA        30.5270   38.4500   70.8370 C.3   193  VAL193      0.1596
     89  C         30.2180   37.7710   69.4990 C.2   193  VAL193      0.2287
     90  O         29.9710   38.4430   68.4950 O.2   193  VAL193     -0.2864
     91  CB        32.0400   38.4260   71.0790 C.3   193  VAL193      0.0276
     92  CG1       32.7930   38.6020   69.7540 C.3   193  VAL193      0.0022
     93  CG2       32.4040   39.5460   72.0260 C.3   193  VAL193      0.0022
     94  N         29.9620   42.2680   77.5310 N.3   224  PHE224     -0.1227
     95  CA        31.2410   41.9970   76.8910 C.3   224  PHE224      0.1736
     96  C         31.2040   41.9000   75.3640 C.2   224  PHE224      0.2596
     97  O         30.4340   41.1240   74.7970 O.2   224  PHE224     -0.2718
     98  CB        31.8200   40.7080   77.4560 C.3   224  PHE224      0.0547
     99  CG        32.8490   40.9260   78.5110 C.ar  224  PHE224     -0.0202
    100  CD1       32.7610   40.2680   79.7330 C.ar  224  PHE224     -0.0042
    101  CD2       33.9320   41.7630   78.2730 C.ar  224  PHE224     -0.0042
    102  CE1       33.7360   40.4390   80.7050 C.ar  224  PHE224     -0.0003
    103  CE2       34.9150   41.9390   79.2350 C.ar  224  PHE224     -0.0003
    104  CZ        34.8160   41.2740   80.4550 C.ar  224  PHE224     -0.0000
    105  N         32.0530   42.6860   74.7090 N.am  225  GLY225     -0.1957
    106  CA        32.1080   42.6600   73.2640 C.3   225  GLY225      0.1869
    107  C         31.2020   43.6510   72.5620 C.2   225  GLY225      0.2309
    108  O         31.5430   44.1210   71.4790 O.2   225  GLY225     -0.2863
    109  N         32.0320   47.5450   75.9460 N.3   244  ASP244     -0.1239
    110  CA        33.4540   47.6490   75.6520 C.3   244  ASP244      0.1674
    111  C         33.6070   47.4610   74.1490 C.2   244  ASP244      0.2266
    112  O         33.0760   46.5060   73.5600 O.2   244  ASP244     -0.2867
    113  CB        34.2730   46.6210   76.4630 C.3   244  ASP244      0.1410
    114  CG        34.3410   45.2580   75.8130 C.2   244  ASP244      0.3668
    115  OD1       35.2640   45.0290   74.9970 O.co2 244  ASP244     -0.2456
    116  OD2       33.4750   44.4120   76.1230 O.co2 244  ASP244     -0.2456
@<TRIPOS>BOND
     1    90    89    2
     2    89    88    1
     3    92    91    1
     4    25    24   ar
     5    25    23   ar
     6    83    82    2
     7    88    91    1
     8    88    87    1
     9    24    22   ar
    10    91    93    1
    11    29    28    2
    12   108   107    2
    13    23    21   ar
    14    82    87   am
    15    82    81    1
    16    28    27    1
    17    22    20   ar
    18   107   106    1
    19    31    32    1
    20    31    30    1
    21    32    33    1
    22    21    20   ar
    23    81    84    1
    24    81    80    1
    25   106   105    1
    26    20    19    1
    27    18    17    2
    28    79    78    2
    29    27    30    1
    30    27    26    1
    31   112   111    2
    32    84    86    1
    33    84    85    1
    34    80    78   am
    35   111   110    1
    36    78    77    1
    37    17    16    1
    38    19    16    1
    39   105    96   am
    40    97    96    2
    41   115   114   ar
    42    16    15    1
    43    77    76    1
    44    96    95    1
    45    52    51    2
    46   110   109    1
    47   110   113    1
    48   114   116   ar
    49   114   113    1
    50    76    74   am
    51    12    11    2
    52    15    11   am
    53    51    50    1
    54    53    50    1
    55    53    54    1
    56    95    98    1
    57    95    94    1
    58    11    10    1
    59    75    74    2
    60    74    73    1
    61    50    49    1
    62    54    55    1
    63    98    99    1
    64    55    49    1
    65   101    99   ar
    66   101   103   ar
    67    73    72    1
    68    99   100   ar
    69    10     9    1
    70    10    13    1
    71     8     6   ar
    72    70    69    2
    73   103   104   ar
    74    13    14    1
    75     6     5    1
    76     6     7   ar
    77     5     2    1
    78   100   102   ar
    79    69    71   am
    80    69    68    1
    81   104   102   ar
    82    65    64    1
    83    65    66    2
    84    64    67    1
    85    64    63    1
    86    44    43    2
    87    67    68    1
    88     2     1    1
    89     2     3    1
    90    47    46   ar
    91     3     4    2
    92    62    60    1
    93    43    42    1
    94    46    48   ar
    95    46    45    1
    96    61    60    1
    97    60    57    1
    98    42    45    1
    99    42    41    1
   100    40    38    1
   101    58    57    1
   102    58    59    2
   103    39    38    1
   104    57    56    1
   105    38    35    1
   106    37    36    2
   107    35    36    1
   108    35    34    1
