@<TRIPOS>MOLECULE
tmp/1itcA03.pdb
 103 102 0 0 0
SMALL
GASTEIGER

@<TRIPOS>ATOM
      1  N         20.3490   15.5450   13.5410 N.3   187  PRO187     -0.2102
      2  CA        21.1530   14.3920   13.9660 C.3   187  PRO187      0.1504
      3  C         22.3090   14.7730   14.8940 C.2   187  PRO187      0.2576
      4  O         23.3900   14.1840   14.8330 O.2   187  PRO187     -0.2718
      5  CB        21.6570   13.8430   12.6460 C.3   187  PRO187      0.0282
      6  CG        21.9950   15.1160   11.9150 C.3   187  PRO187      0.0208
      7  CD        20.8110   16.0390   12.2300 C.3   187  PRO187      0.0893
      8  N         22.0790   15.7520   15.7580 N.am  188  SER188     -0.1938
      9  CA        23.1160   16.2060   16.6750 C.3   188  SER188      0.2055
     10  C         23.3760   15.2280   17.8150 C.2   188  SER188      0.2642
     11  O         22.5860   14.3100   18.0580 O.2   188  SER188     -0.2714
     12  CB        22.7210   17.5590   17.2610 C.3   188  SER188      0.2130
     13  OG        22.4190   18.4740   16.2210 O.3   188  SER188     -0.2179
     14  N         24.4970   15.4220   18.5050 N.am  189  ARG189     -0.1977
     15  CA        24.8080   14.5790   19.6420 C.3   189  ARG189      0.1597
     16  C         23.7700   14.9620   20.6890 C.2   189  ARG189      0.2287
     17  O         23.2410   16.0750   20.6650 O.2   189  ARG189     -0.2864
     18  CB        26.2140   14.8650   20.1820 C.3   189  ARG189      0.0334
     19  CG        26.3540   16.1220   21.0410 C.3   189  ARG189      0.0492
     20  CD        27.7320   16.1480   21.7100 C.3   189  ARG189      0.2205
     21  NE        27.9800   17.3270   22.5390 N.pl3 189  ARG189     -0.0865
     22  CZ        27.5230   17.4940   23.7770 C.cat 189  ARG189      0.5346
     23  NH1       26.7800   16.5580   24.3520 N.pl3 189  ARG189      0.1354
     24  NH2       27.8330   18.5920   24.4540 N.pl3 189  ARG189      0.1354
     25  N         30.7350   16.9450   25.4940 N.3   238  GLU238     -0.1245
     26  CA        31.5530   16.5540   24.3580 C.3   238  GLU238      0.1567
     27  C         32.7890   15.7650   24.7990 C.2   238  GLU238      0.2260
     28  O         33.0540   14.6870   24.2740 O.2   238  GLU238     -0.2867
     29  CB        31.9690   17.8010   23.5750 C.3   238  GLU238      0.0388
     30  CG        32.8960   17.5440   22.4020 C.3   238  GLU238      0.1160
     31  CD        32.1760   17.0040   21.1710 C.2   238  GLU238      0.3649
     32  OE1       32.8260   16.8800   20.1110 O.co2 238  GLU238     -0.2457
     33  OE2       30.9660   16.7050   21.2590 O.co2 238  GLU238     -0.2457
     34  N         24.6920    9.0970   15.2280 N.3   294  GLN294     -0.1245
     35  CA        25.9720    9.2040   15.9380 C.3   294  GLN294      0.1566
     36  C         26.4020    7.8430   16.4960 C.2   294  GLN294      0.2260
     37  O         27.2250    7.7550   17.4110 O.2   294  GLN294     -0.2867
     38  CB        25.9000   10.2340   17.0730 C.3   294  GLN294      0.0367
     39  CG        25.5500   11.6630   16.6280 C.3   294  GLN294      0.0905
     40  CD        26.3760   12.1420   15.4480 C.2   294  GLN294      0.2608
     41  OE1       27.5370   11.7650   15.2900 O.2   294  GLN294     -0.2717
     42  NE2       25.7820   12.9900   14.6170 N.am  294  GLN294     -0.0878
     43  N         30.0560    7.3390   15.1130 N.3   297  ASN297     -0.1226
     44  CA        30.8610    8.5530   15.0190 C.3   297  ASN297      0.1770
     45  C         32.1780    8.2430   15.7490 C.2   297  ASN297      0.2439
     46  O         32.1720    7.9030   16.9330 O.2   297  ASN297     -0.2733
     47  CB        30.1420    9.7180   15.7090 C.3   297  ASN297      0.1168
     48  CG        30.8950   11.0350   15.5860 C.2   297  ASN297      0.2627
     49  OD1       32.0860   11.1250   15.9080 O.2   297  ASN297     -0.2716
     50  ND2       30.1950   12.0710   15.1320 N.am  297  ASN297     -0.0877
     51  N         33.3200    8.3390   15.0470 N.am  298  PRO298     -0.2718
     52  CA        34.6220    8.0560   15.6690 C.3   298  PRO298      0.1535
     53  C         35.0160    9.0120   16.7970 C.2   298  PRO298      0.2599
     54  O         35.6620    8.6100   17.7670 O.2   298  PRO298     -0.2715
     55  CB        35.5920    8.1130   14.4820 C.3   298  PRO298      0.0310
     56  CG        34.9380    9.1120   13.5640 C.3   298  PRO298      0.0237
     57  CD        33.4790    8.6990   13.6270 C.3   298  PRO298      0.0939
     58  N         34.6270   10.2760   16.6680 N.am  299  THR299     -0.1937
     59  CA        34.9510   11.2810   17.6740 C.3   299  THR299      0.2028
     60  C         34.1010   11.1540   18.9450 C.2   299  THR299      0.2642
     61  O         34.6050   11.3450   20.0520 O.2   299  THR299     -0.2714
     62  CB        34.8020   12.6950   17.0820 C.3   299  THR299      0.1808
     63  OG1       35.7010   12.8300   15.9730 O.3   299  THR299     -0.2208
     64  CG2       35.1300   13.7590   18.1210 C.3   299  THR299      0.0379
     65  N         32.8200   10.8300   18.7840 N.am  300  ILE300     -0.1977
     66  CA        31.9170   10.6670   19.9220 C.3   300  ILE300      0.1596
     67  C         31.0490    9.4170   19.7480 C.2   300  ILE300      0.2287
     68  O         29.8640    9.5100   19.4470 O.2   300  ILE300     -0.2864
     69  CB        31.0010   11.9120   20.1080 C.3   300  ILE300      0.0276
     70  CG1       30.3280   12.2830   18.7830 C.3   300  ILE300      0.0022
     71  CG2       31.8150   13.0810   20.6340 C.3   300  ILE300      0.0022
     72  CD1       29.3320   13.4210   18.8980 C.3   300  ILE300      0.0001
     73  N         29.2210   10.3160    7.5690 N.3   340  TYR340     -0.1228
     74  CA        29.1980   11.6650    8.1130 C.3   340  TYR340      0.1721
     75  C         28.0720   12.4250    7.3990 C.2   340  TYR340      0.2437
     76  O         27.8230   12.2070    6.2130 O.2   340  TYR340     -0.2733
     77  CB        30.5610   12.3210    7.8570 C.3   340  TYR340      0.0547
     78  CG        30.6730   13.7910    8.2110 C.ar  340  TYR340     -0.0200
     79  CD1       30.1650   14.7730    7.3610 C.ar  340  TYR340     -0.0009
     80  CD2       31.3010   14.1990    9.3890 C.ar  340  TYR340     -0.0009
     81  CE1       30.2800   16.1300    7.6720 C.ar  340  TYR340      0.0417
     82  CE2       31.4220   15.5590    9.7150 C.ar  340  TYR340      0.0417
     83  CZ        30.9060   16.5150    8.8470 C.ar  340  TYR340      0.1957
     84  OH        31.0100   17.8530    9.1510 O.3   340  TYR340     -0.2866
     85  N         27.3700   13.3210    8.1090 N.am  341  PRO341     -0.2729
     86  CA        27.5400   13.6780    9.5190 C.3   341  PRO341      0.1401
     87  C         26.5900   12.9560   10.4780 C.2   341  PRO341      0.2269
     88  O         26.7450   13.0680   11.6970 O.2   341  PRO341     -0.2865
     89  CB        27.2800   15.1740    9.5110 C.3   341  PRO341      0.0296
     90  CG        26.1340   15.2690    8.5460 C.3   341  PRO341      0.0237
     91  CD        26.5610   14.3430    7.4140 C.3   341  PRO341      0.0939
     92  N         26.0590    9.5470   10.8300 N.3   343  TYR343     -0.1241
     93  CA        26.5990    8.3010   11.3820 C.3   343  TYR343      0.1605
     94  C         25.4510    7.4140   11.8740 C.2   343  TYR343      0.2264
     95  O         25.4640    6.9170   13.0000 O.2   343  TYR343     -0.2867
     96  CB        27.5650    8.6160   12.5280 C.3   343  TYR343      0.0534
     97  CG        28.8630    9.2470   12.0650 C.ar  343  TYR343     -0.0201
     98  CD1       29.8230    8.4940   11.3830 C.ar  343  TYR343     -0.0009
     99  CD2       29.1320   10.5940   12.3010 C.ar  343  TYR343     -0.0009
    100  CE1       31.0220    9.0680   10.9530 C.ar  343  TYR343      0.0417
    101  CE2       30.3260   11.1780   11.8740 C.ar  343  TYR343      0.0417
    102  CZ        31.2640   10.4090   11.2070 C.ar  343  TYR343      0.1957
    103  OH        32.4590   10.9720   10.8210 O.3   343  TYR343     -0.2866
@<TRIPOS>BOND
     1    76    75    2
     2    79    81   ar
     3    79    78   ar
     4    75    85   am
     5    75    74    1
     6    91    85    1
     7    91    90    1
     8    73    74    1
     9    81    83   ar
    10    77    74    1
    11    77    78    1
    12    85    86    1
    13    78    80   ar
    14    90    89    1
    15    83    84    1
    16    83    82   ar
    17    80    82   ar
    18    89    86    1
    19    86    87    1
    20    87    88    2
    21   103   102    1
    22    92    93    1
    23   100   102   ar
    24   100    98   ar
    25   102   101   ar
    26    93    94    1
    27    93    96    1
    28    98    97   ar
    29    94    95    2
    30   101    99   ar
    31     6     7    1
    32     6     5    1
    33    97    99   ar
    34    97    96    1
    35     7     1    1
    36     5     2    1
    37     1     2    1
    38    56    57    1
    39    56    55    1
    40    57    51    1
    41     2     3    1
    42    55    52    1
    43    42    40   am
    44     4     3    2
    45     3     8   am
    46    44    43    1
    47    44    47    1
    48    44    45    1
    49    51    52    1
    50    51    45   am
    51    50    48   am
    52    34    35    1
    53    41    40    2
    54    40    39    1
    55    48    47    1
    56    48    49    2
    57    52    53    1
    58    45    46    2
    59     8     9    1
    60    35    36    1
    61    35    38    1
    62    63    62    1
    63    13    12    1
    64    36    37    2
    65    39    38    1
    66    58    53   am
    67    58    59    1
    68     9    12    1
    69     9    10    1
    70    53    54    2
    71    62    59    1
    72    62    64    1
    73    59    60    1
    74    10    11    2
    75    10    14   am
    76    14    15    1
    77    70    72    1
    78    70    69    1
    79    65    60   am
    80    65    66    1
    81    60    61    2
    82    68    67    2
    83    15    18    1
    84    15    16    1
    85    67    66    1
    86    66    69    1
    87    69    71    1
    88    32    31   ar
    89    18    19    1
    90    17    16    2
    91    19    20    1
    92    31    33   ar
    93    31    30    1
    94    20    21    1
    95    30    29    1
    96    21    22    2
    97    29    26    1
    98    22    23    1
    99    22    24    1
   100    28    27    2
   101    26    27    1
   102    26    25    1
