@<TRIPOS>MOLECULE
tmp/1ithB00.pdb
 212 208 0 0 0
SMALL
GASTEIGER

@<TRIPOS>ATOM
      1  N         38.3890   26.8800   10.4690 N.3    30  PHE30      -0.1241
      2  CA        38.9970   25.8290   11.2650 C.3    30  PHE30       0.1605
      3  C         39.5940   24.7460   10.3960 C.2    30  PHE30       0.2264
      4  O         40.6600   24.2510   10.7700 O.2    30  PHE30      -0.2867
      5  CB        37.9710   25.2450   12.2410 C.3    30  PHE30       0.0534
      6  CG        38.2230   25.7900   13.6510 C.ar   30  PHE30      -0.0203
      7  CD1       39.2640   25.2650   14.4200 C.ar   30  PHE30      -0.0042
      8  CD2       37.4520   26.8250   14.1540 C.ar   30  PHE30      -0.0042
      9  CE1       39.5360   25.7670   15.6830 C.ar   30  PHE30      -0.0003
     10  CE2       37.7370   27.3140   15.4110 C.ar   30  PHE30      -0.0003
     11  CZ        38.7720   26.7960   16.1740 C.ar   30  PHE30      -0.0000
     12  N         42.9670   25.7290    9.7890 N.3    33  TYR33      -0.1241
     13  CA        43.7880   25.5480   10.9910 C.3    33  TYR33       0.1605
     14  C         44.1240   24.0740   11.2360 C.2    33  TYR33       0.2264
     15  O         45.2750   23.7590   11.5450 O.2    33  TYR33      -0.2867
     16  CB        43.0570   26.1100   12.2180 C.3    33  TYR33       0.0534
     17  CG        43.7870   25.9380   13.5400 C.ar   33  TYR33      -0.0201
     18  CD1       44.7370   26.8530   13.9030 C.ar   33  TYR33      -0.0009
     19  CD2       43.4990   24.8720   14.3740 C.ar   33  TYR33      -0.0009
     20  CE1       45.4090   26.7200   15.0920 C.ar   33  TYR33       0.0417
     21  CE2       44.1650   24.7510   15.5740 C.ar   33  TYR33       0.0417
     22  CZ        45.1230   25.6730   15.9260 C.ar   33  TYR33       0.1957
     23  OH        45.8170   25.5660   17.1070 O.3    33  TYR33      -0.2866
     24  N         46.3300   19.1310   16.8780 N.3    40  ASP40      -0.1239
     25  CA        45.3670   19.8440   17.7110 C.3    40  ASP40       0.1674
     26  C         43.9320   19.3750   17.5870 C.2    40  ASP40       0.2266
     27  O         43.0380   19.7410   18.3570 O.2    40  ASP40      -0.2867
     28  CB        45.4830   21.3280   17.4000 C.3    40  ASP40       0.1410
     29  CG        46.8410   21.8720   17.8250 C.2    40  ASP40       0.3668
     30  OD1       47.7190   21.1470   18.2990 O.co2  40  ASP40      -0.2456
     31  OD2       47.0820   23.0540   17.7380 O.co2  40  ASP40      -0.2456
     32  N         42.2200   17.9630   20.7620 N.3    43  PHE43      -0.1227
     33  CA        41.5790   18.6800   21.8690 C.3    43  PHE43       0.1736
     34  C         40.0720   18.5250   21.7530 C.2    43  PHE43       0.2595
     35  O         39.3420   18.6470   22.7390 O.2    43  PHE43      -0.2718
     36  CB        41.8660   20.1810   21.8570 C.3    43  PHE43       0.0547
     37  CG        43.2930   20.6620   22.0490 C.ar   43  PHE43      -0.0202
     38  CD1       43.9070   20.5500   23.2940 C.ar   43  PHE43      -0.0042
     39  CD2       43.9720   21.2430   20.9820 C.ar   43  PHE43      -0.0042
     40  CE1       45.1990   21.0210   23.4650 C.ar   43  PHE43      -0.0003
     41  CE2       45.2640   21.7160   21.1580 C.ar   43  PHE43      -0.0003
     42  CZ        45.8700   21.6040   22.3910 C.ar   43  PHE43      -0.0000
     43  N         39.5480   18.2050   20.5850 N.am   44  PHE44      -0.1962
     44  CA        38.1200   18.1710   20.3570 C.3    44  PHE44       0.1771
     45  C         37.5890   16.7430   20.4600 C.2    44  PHE44       0.2620
     46  O         37.2590   16.0950   19.4630 O.2    44  PHE44      -0.2715
     47  CB        37.8400   18.7670   18.9580 C.3    44  PHE44       0.0574
     48  CG        38.3210   20.1980   18.6980 C.ar   44  PHE44      -0.0200
     49  CD1       37.5120   21.2920   19.0150 C.ar   44  PHE44      -0.0042
     50  CD2       39.5610   20.4160   18.1080 C.ar   44  PHE44      -0.0042
     51  CE1       37.9460   22.5840   18.7490 C.ar   44  PHE44      -0.0003
     52  CE2       39.9800   21.7140   17.8530 C.ar   44  PHE44      -0.0003
     53  CZ        39.1750   22.7890   18.1630 C.ar   44  PHE44      -0.0000
     54  N         37.3640   16.2780   21.6790 N.am   45  HIS45      -0.1959
     55  CA        36.9330   14.9040   21.9610 C.3    45  HIS45       0.1787
     56  C         35.6950   14.4680   21.2210 C.2    45  HIS45       0.2620
     57  O         35.6490   13.3320   20.7650 O.2    45  HIS45      -0.2715
     58  CB        36.7270   14.7170   23.5100 C.3    45  HIS45       0.0785
     59  CG        38.0290   15.0420   24.2400 C.ar   45  HIS45       0.0821
     60  ND1       38.2760   16.0930   25.0320 N.ar   45  HIS45      -0.2267
     61  CD2       39.2350   14.3870   24.0510 C.ar   45  HIS45       0.1154
     62  CE1       39.5730   16.1250   25.3130 C.ar   45  HIS45       0.1986
     63  NE2       40.1390   15.0930   24.7160 N.ar   45  HIS45      -0.2212
     64  N         34.7140   15.3490   21.0320 N.am   46  LYS46      -0.1963
     65  CA        33.5150   15.0890   20.2350 C.3    46  LYS46       0.1728
     66  C         33.7880   14.7480   18.7490 C.2    46  LYS46       0.2616
     67  O         32.8880   14.2950   18.0300 O.2    46  LYS46      -0.2715
     68  CB        32.6000   16.3080   20.2810 C.3    46  LYS46       0.0311
     69  CG        31.5740   16.5010   21.4030 C.3    46  LYS46       0.0038
     70  CD        32.1850   16.7800   22.7780 C.3    46  LYS46       0.0206
     71  CE        31.2580   17.6410   23.6580 C.3    46  LYS46       0.1093
     72  NZ        31.3880   19.0510   23.3580 N.3    46  LYS46      -0.1314
     73  N         34.9690   15.0090   18.1810 N.am   47  PHE47      -0.1974
     74  CA        35.2140   14.5970   16.8180 C.3    47  PHE47       0.1639
     75  C         36.6770   14.3670   16.5290 C.2    47  PHE47       0.2290
     76  O         37.0420   14.3770   15.3560 O.2    47  PHE47      -0.2864
     77  CB        34.6370   15.6360   15.7930 C.3    47  PHE47       0.0560
     78  CG        35.0310   17.0910   16.0070 C.ar   47  PHE47      -0.0200
     79  CD1       34.2510   17.8770   16.8380 C.ar   47  PHE47      -0.0042
     80  CD2       36.1640   17.6100   15.3940 C.ar   47  PHE47      -0.0042
     81  CE1       34.6120   19.1940   17.0570 C.ar   47  PHE47      -0.0003
     82  CE2       36.5110   18.9360   15.6240 C.ar   47  PHE47      -0.0003
     83  CZ        35.7330   19.7250   16.4550 C.ar   47  PHE47      -0.0000
     84  N         30.5020   23.0610   16.4990 N.3    64  GLN64      -0.1245
     85  CA        31.6350   23.6970   17.1440 C.3    64  GLN64       0.1566
     86  C         32.1200   24.9420   16.4090 C.2    64  GLN64       0.2260
     87  O         32.2920   25.9940   17.0280 O.2    64  GLN64      -0.2867
     88  CB        32.7930   22.7120   17.2760 C.3    64  GLN64       0.0367
     89  CG        33.7920   23.2180   18.3110 C.3    64  GLN64       0.0905
     90  CD        33.2020   23.5980   19.6790 C.2    64  GLN64       0.2608
     91  OE1       32.2550   22.9970   20.2080 O.2    64  GLN64      -0.2717
     92  NE2       33.7670   24.5910   20.3380 N.am   64  GLN64      -0.0878
     93  N         29.7180   27.6800   16.9360 N.3    67  THR67      -0.1203
     94  CA        29.8390   28.2810   18.2740 C.3    67  THR67       0.1994
     95  C         31.0010   29.2910   18.2550 C.2    67  THR67       0.2617
     96  O         30.8540   30.3930   18.8150 O.2    67  THR67      -0.2717
     97  CB        30.1040   27.1520   19.3360 C.3    67  THR67       0.1784
     98  OG1       28.9020   26.4080   19.4980 O.3    67  THR67      -0.2211
     99  CG2       30.5350   27.6920   20.6580 C.3    67  THR67       0.0376
    100  N         32.1330   28.9770   17.5920 N.am   68  VAL68      -0.1979
    101  CA        33.2330   29.9230   17.6000 C.3    68  VAL68       0.1595
    102  C         32.8320   31.1430   16.7520 C.2    68  VAL68       0.2287
    103  O         32.8640   32.2530   17.2720 O.2    68  VAL68      -0.2864
    104  CB        34.5720   29.2510   17.0660 C.3    68  VAL68       0.0276
    105  CG1       34.8360   29.3210   15.5680 C.3    68  VAL68       0.0022
    106  CG2       35.6840   30.0950   17.5510 C.3    68  VAL68       0.0022
    107  N         30.6200   33.7030   18.4760 N.3    71  TYR71      -0.1227
    108  CA        31.3380   34.5200   19.4370 C.3    71  TYR71       0.1736
    109  C         32.1950   35.5050   18.6460 C.2    71  TYR71       0.2595
    110  O         32.1640   36.6980   18.9800 O.2    71  TYR71      -0.2718
    111  CB        32.2360   33.6550   20.3430 C.3    71  TYR71       0.0548
    112  CG        32.7400   34.4100   21.5670 C.ar   71  TYR71      -0.0200
    113  CD1       31.8460   34.6830   22.5890 C.ar   71  TYR71      -0.0009
    114  CD2       34.0480   34.8600   21.6430 C.ar   71  TYR71      -0.0009
    115  CE1       32.2360   35.4030   23.6900 C.ar   71  TYR71       0.0417
    116  CE2       34.4470   35.5850   22.7450 C.ar   71  TYR71       0.0417
    117  CZ        33.5420   35.8460   23.7700 C.ar   71  TYR71       0.1957
    118  OH        33.9460   36.4450   24.9530 O.3    71  TYR71      -0.2866
    119  N         32.9920   35.1360   17.6340 N.am   72  LEU72      -0.1980
    120  CA        33.7470   36.1250   16.8420 C.3    72  LEU72       0.1596
    121  C         32.8580   37.2020   16.2620 C.2    72  LEU72       0.2287
    122  O         33.3010   38.3350   16.2260 O.2    72  LEU72      -0.2864
    123  CB        34.4640   35.6050   15.6000 C.3    72  LEU72       0.0297
    124  CG        35.7580   34.8770   15.6510 C.3    72  LEU72       0.0022
    125  CD1       36.0560   34.3330   14.2490 C.3    72  LEU72       0.0001
    126  CD2       36.8590   35.8110   16.1380 C.3    72  LEU72       0.0001
    127  N         37.7440   38.6640   23.9970 N.3    87  MET87      -0.1245
    128  CA        38.7610   37.6330   23.8660 C.3    87  MET87       0.1570
    129  C         39.2270   37.1590   25.2390 C.2    87  MET87       0.2261
    130  O         39.3170   35.9470   25.4600 O.2    87  MET87      -0.2867
    131  CB        40.0010   38.1080   23.1330 C.3    87  MET87       0.0387
    132  CG        39.8570   38.2940   21.6300 C.3    87  MET87       0.0595
    133  SD        38.9260   36.9510   20.8490 S.3    87  MET87      -0.1393
    134  CE        40.1600   35.6780   20.8030 C.3    87  MET87       0.0692
    135  N         37.6250   34.1870   27.4640 N.3    90  LYS90      -0.1245
    136  CA        37.6580   32.7830   27.0360 C.3    90  LYS90       0.1561
    137  C         38.9800   32.1010   27.3610 C.2    90  LYS90       0.2260
    138  O         39.1120   30.8860   27.1420 O.2    90  LYS90      -0.2867
    139  CB        37.3780   32.6930   25.4960 C.3    90  LYS90       0.0271
    140  CG        35.9760   33.1010   25.0360 C.3    90  LYS90       0.0035
    141  CD        34.9280   32.1510   25.6020 C.3    90  LYS90       0.0206
    142  CE        33.5030   32.6700   25.6340 C.3    90  LYS90       0.1093
    143  NZ        32.5110   31.7160   26.1520 N.3    90  LYS90      -0.1314
    144  N         38.6280   29.2370   30.4790 N.3    93  SER93      -0.1202
    145  CA        38.0070   28.0700   29.8890 C.3    93  SER93       0.2020
    146  C         38.9630   27.2680   29.0260 C.2    93  SER93       0.2618
    147  O         38.9990   26.0470   29.1340 O.2    93  SER93      -0.2717
    148  CB        36.8410   28.5610   29.0600 C.3    93  SER93       0.2103
    149  OG        35.8200   27.6020   28.8490 O.3    93  SER93      -0.2182
    150  N         39.7580   27.9190   28.1730 N.am   94  HIS94      -0.1975
    151  CA        40.6350   27.1970   27.2670 C.3    94  HIS94       0.1656
    152  C         41.9000   26.7720   27.9700 C.2    94  HIS94       0.2291
    153  O         42.5030   25.7460   27.6100 O.2    94  HIS94      -0.2864
    154  CB        41.0180   28.0580   26.0380 C.3    94  HIS94       0.0771
    155  CG        39.8540   28.1980   25.0700 C.ar   94  HIS94       0.0820
    156  ND1       38.8160   28.9960   25.2540 N.ar   94  HIS94      -0.2267
    157  CD2       39.6570   27.5080   23.8920 C.ar   94  HIS94       0.1154
    158  CE1       37.9830   28.8430   24.2610 C.ar   94  HIS94       0.1986
    159  NE2       38.4970   27.9500   23.4610 N.ar   94  HIS94      -0.2212
    160  N         41.9060   23.4040   29.4420 N.3    97  MET97      -0.1245
    161  CA        42.1290   22.4490   28.3690 C.3    97  MET97       0.1570
    162  C         43.5320   22.3500   27.8020 C.2    97  MET97       0.2261
    163  O         43.8390   21.4010   27.0680 O.2    97  MET97      -0.2867
    164  CB        41.1660   22.7710   27.2850 C.3    97  MET97       0.0387
    165  CG        39.7540   22.3390   27.5310 C.3    97  MET97       0.0595
    166  SD        38.7190   23.1370   26.2770 S.3    97  MET97      -0.1393
    167  CE        37.4610   24.0490   27.1210 C.3    97  MET97       0.0692
    168  N         45.0240   24.9200   26.0950 N.3    99  ILE99      -0.1245
    169  CA        45.0350   25.7960   24.9230 C.3    99  ILE99       0.1561
    170  C         45.4040   27.2140   25.3060 C.2    99  ILE99       0.2260
    171  O         44.6930   27.8550   26.0490 O.2    99  ILE99      -0.2867
    172  CB        43.6500   25.7580   24.2820 C.3    99  ILE99       0.0252
    173  CG1       43.3110   24.3120   23.9010 C.3    99  ILE99       0.0019
    174  CG2       43.6260   26.6680   23.0680 C.3    99  ILE99       0.0019
    175  CD1       41.7960   24.0290   23.8610 C.3    99  ILE99       0.0001
    176  N         47.8800   29.2120   20.5270 N.3   103  HIS103     -0.1226
    177  CA        46.9070   28.5150   19.6610 C.3   103  HIS103      0.1752
    178  C         45.8870   29.4300   19.0150 C.2   103  HIS103      0.2596
    179  O         45.5260   29.2600   17.8530 O.2   103  HIS103     -0.2718
    180  CB        46.0540   27.4770   20.3830 C.3   103  HIS103      0.0759
    181  CG        46.8770   26.4590   21.1440 C.ar  103  HIS103      0.0818
    182  ND1       47.4980   26.6640   22.3030 N.ar  103  HIS103     -0.2268
    183  CD2       47.1260   25.1680   20.7500 C.ar  103  HIS103      0.1154
    184  CE1       48.1150   25.5700   22.6390 C.ar  103  HIS103      0.1986
    185  NE2       47.8840   24.6850   21.7110 N.ar  103  HIS103     -0.2212
    186  N         45.4380   30.4140   19.7940 N.am  104  PHE104     -0.1976
    187  CA        44.5330   31.4560   19.3590 C.3   104  PHE104      0.1639
    188  C         45.1810   32.3160   18.2980 C.2   104  PHE104      0.2290
    189  O         44.5300   32.6890   17.3330 O.2   104  PHE104     -0.2864
    190  CB        44.1360   32.3710   20.5180 C.3   104  PHE104      0.0560
    191  CG        43.0010   31.8870   21.3890 C.ar  104  PHE104     -0.0200
    192  CD1       43.2010   30.8460   22.2790 C.ar  104  PHE104     -0.0042
    193  CD2       41.7770   32.5140   21.3050 C.ar  104  PHE104     -0.0042
    194  CE1       42.1630   30.4190   23.0940 C.ar  104  PHE104     -0.0003
    195  CE2       40.7440   32.0860   22.1240 C.ar  104  PHE104     -0.0003
    196  CZ        40.9320   31.0430   23.0230 C.ar  104  PHE104     -0.0000
    197  N         45.0850   30.5480   15.0640 N.3   107  LEU107     -0.1231
    198  CA        43.8040   30.5940   14.3680 C.3   107  LEU107      0.1693
    199  C         43.5500   31.9970   13.7750 C.2   107  LEU107      0.2591
    200  O         43.1940   32.1730   12.6010 O.2   107  LEU107     -0.2718
    201  CB        42.7110   30.1950   15.3750 C.3   107  LEU107      0.0284
    202  CG        41.2780   29.7940   15.0080 C.3   107  LEU107      0.0019
    203  CD1       40.4610   30.9660   14.5660 C.3   107  LEU107      0.0001
    204  CD2       41.3230   28.8390   13.8480 C.3   107  LEU107      0.0001
    205  N         43.7690   33.0570   14.5400 N.am  108  LEU108     -0.1980
    206  CA        43.5350   34.4020   14.0730 C.3   108  LEU108      0.1596
    207  C         44.5000   34.8340   12.9490 C.2   108  LEU108      0.2287
    208  O         44.1500   35.6700   12.1430 O.2   108  LEU108     -0.2864
    209  CB        43.6050   35.2460   15.3400 C.3   108  LEU108      0.0297
    210  CG        42.3250   35.7710   16.1140 C.3   108  LEU108      0.0022
    211  CD1       41.0690   34.9380   15.8940 C.3   108  LEU108      0.0001
    212  CD2       42.6840   35.7920   17.5900 C.3   108  LEU108      0.0001
@<TRIPOS>BOND
     1    12    13    1
     2     3     4    2
     3     3     2    1
     4     1     2    1
     5    13    14    1
     6    13    16    1
     7    14    15    2
     8     2     5    1
     9   208   207    2
    10    16    17    1
    11     5     6    1
    12   200   199    2
    13   207   206    1
    14    17    18   ar
    15    17    19   ar
    16     6     8   ar
    17     6     7   ar
    18   199   198    1
    19   199   205   am
    20   204   202    1
    21    18    20   ar
    22   206   205    1
    23   206   209    1
    24     8    10   ar
    25   125   124    1
    26   198   197    1
    27   198   201    1
    28    19    21   ar
    29     7     9   ar
    30   203   202    1
    31   202   201    1
    32    20    22   ar
    33   209   210    1
    34    76    75    2
    35    80    82   ar
    36    80    78   ar
    37    10    11   ar
    38   105   104    1
    39    21    22   ar
    40   123   124    1
    41   123   120    1
    42    82    83   ar
    43   124   126    1
    44     9    11   ar
    45    77    78    1
    46    77    74    1
    47   211   210    1
    48    22    23    1
    49    78    79   ar
    50   210   212    1
    51   122   121    2
    52   121   120    1
    53    86    87    2
    54    86    85    1
    55    83    81   ar
    56    84    85    1
    57    75    74    1
    58   102   103    2
    59   102   101    1
    60    74    73    1
    61    79    81   ar
    62   120   119    1
    63    24    25    1
    64    93    94    1
    65   104   106    1
    66   104   101    1
    67    85    88    1
    68    88    89    1
    69   189   188    2
    70    28    25    1
    71    28    29    1
    72    26    25    1
    73    26    27    2
    74   100   101    1
    75   100    95   am
    76   119   109   am
    77    31    29   ar
    78    29    30   ar
    79    52    50   ar
    80    52    53   ar
    81   179   178    2
    82    67    66    2
    83    50    48   ar
    84    53    51   ar
    85    73    66   am
    86    95    94    1
    87    95    96    2
    88    94    97    1
    89   188   187    1
    90    89    90    1
    91   107   108    1
    92   109   110    2
    93   109   108    1
    94    48    47    1
    95    48    49   ar
    96    51    49   ar
    97    66    65    1
    98    47    44    1
    99   178   177    1
   100   178   186   am
   101    97    98    1
   102    97    99    1
   103   187   186    1
   104   187   190    1
   105   108   111    1
   106    46    45    2
   107   177   180    1
   108   177   176    1
   109    90    91    2
   110    90    92   am
   111    65    68    1
   112    65    64    1
   113    68    69    1
   114   111   112    1
   115    44    45    1
   116    44    43    1
   117   180   181    1
   118    45    54   am
   119   190   191    1
   120    43    34   am
   121   183   181   ar
   122   183   185   ar
   123    32    33    1
   124    57    56    2
   125   134   133    1
   126   133   132    1
   127    39    41   ar
   128    39    37   ar
   129    64    56   am
   130   181   182   ar
   131    41    42   ar
   132    56    55    1
   133   193   191   ar
   134   193   195   ar
   135   191   192   ar
   136    69    70    1
   137   112   114   ar
   138   112   113   ar
   139   132   131    1
   140   114   116   ar
   141    54    55    1
   142   185   184   ar
   143    34    33    1
   144    34    35    2
   145    36    33    1
   146    36    37    1
   147    55    58    1
   148    37    38   ar
   149   195   196   ar
   150   192   194   ar
   151   182   184   ar
   152    42    40   ar
   153   113   115   ar
   154   116   117   ar
   155    70    71    1
   156   196   194   ar
   157   174   172    1
   158   131   128    1
   159    38    40   ar
   160    72    71    1
   161   159   157   ar
   162   159   158   ar
   163    58    59    1
   164   115   117   ar
   165   117   118    1
   166   175   173    1
   167   128   127    1
   168   128   129    1
   169   157   155   ar
   170   173   172    1
   171    61    59   ar
   172    61    63   ar
   173    59    60   ar
   174   158   156   ar
   175   172   169    1
   176    63    62   ar
   177   169   170    1
   178   169   168    1
   179    60    62   ar
   180   140   139    1
   181   140   141    1
   182   155   156   ar
   183   155   154    1
   184   129   130    2
   185   170   171    2
   186   139   136    1
   187   141   142    1
   188   142   143    1
   189   154   151    1
   190   166   167    1
   191   166   165    1
   192   136   137    1
   193   136   135    1
   194   163   162    2
   195   138   137    2
   196   151   152    1
   197   151   150    1
   198   164   165    1
   199   164   161    1
   200   153   152    2
   201   162   161    1
   202   150   146   am
   203   161   160    1
   204   149   148    1
   205   146   147    2
   206   146   145    1
   207   148   145    1
   208   145   144    1
