@<TRIPOS>MOLECULE
tmp/1itoA00.pdb
 126 124 0 0 0
SMALL
GASTEIGER

@<TRIPOS>ATOM
      1  N          7.1450   23.7910  -15.2440 N.3    23  GLN23      -0.1245
      2  CA         7.9590   22.5960  -15.3750 C.3    23  GLN23       0.1566
      3  C          7.1940   21.4010  -15.9480 C.2    23  GLN23       0.2260
      4  O          7.7990   20.3960  -16.3340 O.2    23  GLN23      -0.2867
      5  CB         8.5530   22.2410  -14.0110 C.3    23  GLN23       0.0367
      6  CG         7.5190   22.0770  -12.9020 C.3    23  GLN23       0.0905
      7  CD         8.1560   21.7530  -11.5650 C.2    23  GLN23       0.2608
      8  OE1        8.3960   22.6410  -10.7430 O.2    23  GLN23      -0.2717
      9  NE2        8.4540   20.4780  -11.3490 N.am   23  GLN23      -0.0878
     10  N          9.8310   16.3610  -12.5680 N.3    27  GLY27      -0.1225
     11  CA        10.4680   16.9030  -11.3800 C.3    27  GLY27       0.1811
     12  C         11.7390   17.6370  -11.7580 C.2    27  GLY27       0.2280
     13  O         12.8250   17.2970  -11.2870 O.2    27  GLY27      -0.2866
     14  N         12.3410   20.9720  -11.2640 N.3    29  CYS29      -0.1221
     15  CA        12.4660   22.2450  -10.5700 C.3    29  CYS29       0.1808
     16  C         13.9310   22.6490  -10.3810 C.2    29  CYS29       0.2601
     17  O         14.2790   23.8220  -10.5210 O.2    29  CYS29      -0.2717
     18  CB        11.7530   22.1870   -9.2140 C.3    29  CYS29       0.0970
     19  SG        12.5390   21.1130   -7.9890 S.3    29  CYS29      -0.0800
     20  N         14.7950   21.6820  -10.0770 N.am   30  TRP30      -0.1976
     21  CA        16.2090   21.9780   -9.8840 C.3    30  TRP30       0.1640
     22  C         16.7640   22.7260  -11.1010 C.2    30  TRP30       0.2290
     23  O         17.5710   23.6500  -10.9640 O.2    30  TRP30      -0.2864
     24  CB        17.0150   20.6920   -9.6570 C.3    30  TRP30       0.0576
     25  CG        17.0110   19.7240  -10.8160 C.ar   30  TRP30       0.0006
     26  CD1       16.0860   18.7490  -11.0710 C.ar   30  TRP30       0.0946
     27  CD2       17.9520   19.6720  -11.8970 C.ar   30  TRP30       0.0152
     28  NE1       16.3920   18.0950  -12.2430 N.ar   30  TRP30      -0.2442
     29  CE2       17.5300   18.6450  -12.7720 C.ar   30  TRP30       0.0810
     30  CE3       19.1130   20.3970  -12.2130 C.ar   30  TRP30       0.0012
     31  CZ2       18.2240   18.3240  -13.9430 C.ar   30  TRP30       0.0191
     32  CZ3       19.8070   20.0760  -13.3790 C.ar   30  TRP30       0.0001
     33  CH2       19.3570   19.0470  -14.2300 C.ar   30  TRP30       0.0015
     34  N         22.0890   15.1430  -10.9770 N.3    66  GLY66      -0.1210
     35  CA        21.0670   14.3110  -10.3850 C.3    66  GLY66       0.1956
     36  C         20.4410   13.3160  -11.3360 C.2    66  GLY66       0.2611
     37  O         21.1440   12.5590  -11.9970 O.2    66  GLY66      -0.2717
     38  N         19.1140   13.3260  -11.4210 N.am   67  ASP67      -0.1973
     39  CA        18.4200   12.3700  -12.2640 C.3    67  ASP67       0.1709
     40  C         17.2950   12.9440  -13.1250 C.2    67  ASP67       0.2293
     41  O         16.1640   12.4530  -13.0740 O.2    67  ASP67      -0.2864
     42  CB        17.8590   11.2520  -11.3840 C.3    67  ASP67       0.1436
     43  CG        17.4430   10.0370  -12.1840 C.2    67  ASP67       0.3671
     44  OD1       16.6870    9.1950  -11.6470 O.co2  67  ASP67      -0.2456
     45  OD2       17.8850    9.9200  -13.3500 O.co2  67  ASP67      -0.2456
     46  N         13.6220   13.1480  -12.3910 N.3    70  ASN70      -0.1225
     47  CA        13.5510   12.4930  -11.0930 C.3    70  ASN70       0.1785
     48  C         14.1260   13.3730   -9.9940 C.2    70  ASN70       0.2598
     49  O         14.1500   12.9750   -8.8300 O.2    70  ASN70      -0.2718
     50  CB        14.3070   11.1700  -11.1260 C.3    70  ASN70       0.1169
     51  CG        13.3840    9.9810  -11.2590 C.2    70  ASN70       0.2627
     52  OD1       12.4840    9.9670  -12.1050 O.2    70  ASN70      -0.2716
     53  ND2       13.6070    8.9660  -10.4260 N.am   70  ASN70      -0.0877
     54  N         14.5890   14.5670  -10.3600 N.am   71  GLY71      -0.1942
     55  CA        15.1450   15.4720   -9.3690 C.3    71  GLY71       0.2014
     56  C         16.6440   15.6490   -9.4940 C.2    71  GLY71       0.2639
     57  O         17.3410   14.7780  -10.0100 O.2    71  GLY71      -0.2714
     58  N         17.1480   16.7800   -9.0130 N.am   72  GLY72      -0.1939
     59  CA        18.5720   17.0360   -9.1100 C.3    72  GLY72       0.2014
     60  C         19.1570   17.9480   -8.0470 C.2    72  GLY72       0.2639
     61  O         18.4840   18.3180   -7.0850 O.2    72  GLY72      -0.2714
     62  N         20.4220   18.3120   -8.2400 N.am   73  PHE73      -0.1960
     63  CA        21.1590   19.1640   -7.3110 C.3    73  PHE73       0.1756
     64  C         21.3620   20.5460   -7.9190 C.2    73  PHE73       0.2461
     65  O         22.1300   20.7130   -8.8690 O.2    73  PHE73      -0.2730
     66  CB        22.5160   18.5260   -7.0050 C.3    73  PHE73       0.0574
     67  CG        22.4570   17.0310   -6.8460 C.ar   73  PHE73      -0.0200
     68  CD1       23.1220   16.1980   -7.7390 C.ar   73  PHE73      -0.0042
     69  CD2       21.7270   16.4540   -5.8120 C.ar   73  PHE73      -0.0042
     70  CE1       23.0620   14.8110   -7.6050 C.ar   73  PHE73      -0.0003
     71  CE2       21.6600   15.0580   -5.6700 C.ar   73  PHE73      -0.0003
     72  CZ        22.3300   14.2400   -6.5690 C.ar   73  PHE73      -0.0000
     73  N         20.6770   21.5600   -7.3670 N.am   74  PRO74      -0.2727
     74  CA        20.7570   22.9470   -7.8390 C.3    74  PRO74       0.1402
     75  C         22.1720   23.4450   -8.1300 C.2    74  PRO74       0.2269
     76  O         22.4510   23.9210   -9.2290 O.2    74  PRO74      -0.2865
     77  CB        20.0790   23.7270   -6.7140 C.3    74  PRO74       0.0296
     78  CG        19.0390   22.7500   -6.2320 C.3    74  PRO74       0.0237
     79  CD        19.8340   21.4690   -6.1610 C.3    74  PRO74       0.0939
     80  N         15.9220   26.3380   -2.3760 N.3   171  ALA171     -0.1245
     81  CA        15.1030   25.1410   -2.2690 C.3   171  ALA171      0.1562
     82  C         14.4760   25.1070   -0.8800 C.2   171  ALA171      0.2260
     83  O         15.0190   25.6800    0.0640 O.2   171  ALA171     -0.2867
     84  CB        15.9660   23.8970   -2.4970 C.3   171  ALA171      0.0290
     85  N         11.4090   18.0550   -1.2940 N.3   196  GLY196     -0.1210
     86  CA        12.1340   19.2910   -1.5330 C.3   196  GLY196      0.1956
     87  C         11.7480   19.9080   -2.8660 C.2   196  GLY196      0.2612
     88  O         11.4380   19.1940   -3.8170 O.2   196  GLY196     -0.2717
     89  N         11.7660   21.2350   -2.9430 N.am  197  HIS197     -0.1961
     90  CA        11.4000   21.9180   -4.1760 C.3   197  HIS197      0.1787
     91  C         12.2670   23.1560   -4.4220 C.2   197  HIS197      0.2620
     92  O         12.2460   24.1130   -3.6450 O.2   197  HIS197     -0.2715
     93  CB         9.9190   22.3080   -4.1160 C.3   197  HIS197      0.0785
     94  CG         9.3920   22.9010   -5.3820 C.ar  197  HIS197      0.0821
     95  ND1        9.4400   22.2380   -6.5890 N.ar  197  HIS197     -0.2267
     96  CD2        8.8090   24.0960   -5.6330 C.ar  197  HIS197      0.1154
     97  CE1        8.9050   22.9950   -7.5270 C.ar  197  HIS197      0.1986
     98  NE2        8.5180   24.1300   -6.9770 N.ar  197  HIS197     -0.2212
     99  N         13.0350   23.1270   -5.5130 N.am  198  ALA198     -0.1977
    100  CA        13.9140   24.2300   -5.8830 C.3   198  ALA198      0.1597
    101  C         13.1210   25.3740   -6.5220 C.2   198  ALA198      0.2287
    102  O         12.2100   25.1440   -7.3260 O.2   198  ALA198     -0.2864
    103  CB        14.9930   23.7350   -6.8440 C.3   198  ALA198      0.0319
    104  N          5.2160   26.5490  -11.5490 N.3   219  TRP219     -0.1241
    105  CA         3.9460   25.8610  -11.7320 C.3   219  TRP219      0.1605
    106  C          2.9350   26.7120  -12.4940 C.2   219  TRP219      0.2264
    107  O          1.7270   26.6220  -12.2510 O.2   219  TRP219     -0.2867
    108  CB         3.3490   25.4850  -10.3740 C.3   219  TRP219      0.0550
    109  CG         4.1340   24.4740   -9.5970 C.ar  219  TRP219      0.0003
    110  CD1        5.1620   23.7030  -10.0520 C.ar  219  TRP219      0.0946
    111  CD2        3.9140   24.0870   -8.2350 C.ar  219  TRP219      0.0152
    112  NE1        5.5970   22.8570   -9.0600 N.ar  219  TRP219     -0.2442
    113  CE2        4.8480   23.0710   -7.9330 C.ar  219  TRP219      0.0810
    114  CE3        3.0150   24.4980   -7.2390 C.ar  219  TRP219      0.0012
    115  CZ2        4.9110   22.4590   -6.6740 C.ar  219  TRP219      0.0191
    116  CZ3        3.0770   23.8900   -5.9880 C.ar  219  TRP219      0.0001
    117  CH2        4.0210   22.8810   -5.7190 C.ar  219  TRP219      0.0015
    118  N         19.8110   26.4120    1.2690 N.3   243  GLU243     -0.1245
    119  CA        20.4100   25.9160    0.0330 C.3   243  GLU243      0.1567
    120  C         20.4460   26.9790   -1.0710 C.2   243  GLU243      0.2260
    121  O         19.9210   26.7740   -2.1600 O.2   243  GLU243     -0.2867
    122  CB        19.6250   24.6820   -0.4230 C.3   243  GLU243      0.0388
    123  CG        20.0970   24.0270   -1.7110 C.3   243  GLU243      0.1160
    124  CD        19.3070   22.7710   -2.0260 C.2   243  GLU243      0.3649
    125  OE1       19.4160   22.2610   -3.1640 O.co2 243  GLU243     -0.2457
    126  OE2       18.5790   22.2900   -1.1270 O.co2 243  GLU243     -0.2457
@<TRIPOS>BOND
     1     4     3    2
     2     3     2    1
     3     2     1    1
     4     2     5    1
     5    33    31   ar
     6    33    32   ar
     7     5     6    1
     8    31    29   ar
     9    32    30   ar
    10    45    43   ar
    11    40    41    2
    12    40    39    1
    13     6     7    1
    14    29    28   ar
    15    29    27   ar
    16    10    11    1
    17   106   107    2
    18   106   105    1
    19    46    47    1
    20    39    38    1
    21    39    42    1
    22    28    26   ar
    23    30    27   ar
    24    43    44   ar
    25    43    42    1
    26    52    51    2
    27    37    36    2
    28    27    25   ar
    29    12    11    1
    30    12    13    2
    31   105   104    1
    32   105   108    1
    33     7     9   am
    34     7     8    2
    35    38    36   am
    36    36    35    1
    37    14    15    1
    38    51    50    1
    39    51    53   am
    40    50    47    1
    41    22    23    2
    42    22    21    1
    43    47    48    1
    44    26    25   ar
    45    34    35    1
    46    25    24    1
    47    15    16    1
    48    15    18    1
    49    17    16    2
    50    16    20   am
    51   108   109    1
    52    54    48   am
    53    54    55    1
    54    20    21    1
    55   110   109   ar
    56   110   112   ar
    57    57    56    2
    58    48    49    2
    59    21    24    1
    60   109   111   ar
    61    56    55    1
    62    56    58   am
    63    76    75    2
    64    18    19    1
    65    59    58    1
    66    59    60    1
    67   112   113   ar
    68    65    64    2
    69    62    60   am
    70    62    63    1
    71   111   113   ar
    72   111   114   ar
    73    75    74    1
    74    60    61    2
    75   113   115   ar
    76    64    73   am
    77    64    63    1
    78    74    73    1
    79    74    77    1
    80    68    70   ar
    81    68    67   ar
    82    70    72   ar
    83    97    98   ar
    84    97    95   ar
    85    73    79    1
    86   102   101    2
    87    63    66    1
    88   114   116   ar
    89    66    67    1
    90    98    96   ar
    91    67    69   ar
    92   103   100    1
    93    77    78    1
    94   115   117   ar
    95    95    94   ar
    96    72    71   ar
    97   101   100    1
    98    78    79    1
    99   116   117   ar
   100   100    99    1
   101    69    71   ar
   102    96    94   ar
   103    99    91   am
   104    94    93    1
   105    91    90    1
   106    91    92    2
   107    90    93    1
   108    90    89    1
   109    88    87    2
   110   125   124   ar
   111    89    87   am
   112    87    86    1
   113    84    81    1
   114    80    81    1
   115    81    82    1
   116   121   120    2
   117   124   123    1
   118   124   126   ar
   119   123   122    1
   120    86    85    1
   121   120   119    1
   122    82    83    2
   123   122   119    1
   124   119   118    1
