@<TRIPOS>MOLECULE
tmp/1ituA01.pdb
 168 166 0 0 0
SMALL
GASTEIGER

@<TRIPOS>ATOM
      1  N        -15.1600    4.7050    6.9800 N.3    22  ASP22      -0.1239
      2  CA       -14.5180    5.5900    7.9460 C.3    22  ASP22       0.1674
      3  C        -15.0660    5.5940    9.3830 C.2    22  ASP22       0.2266
      4  O        -15.0430    6.6340   10.0470 O.2    22  ASP22      -0.2867
      5  CB       -14.4950    7.0260    7.4290 C.3    22  ASP22       0.1410
      6  CG       -13.3520    7.2890    6.4840 C.2    22  ASP22       0.3668
      7  OD1      -13.6250    7.7670    5.3670 O.co2  22  ASP22      -0.2456
      8  OD2      -12.1840    7.0470    6.8570 O.co2  22  ASP22      -0.2456
      9  N        -12.6660    6.9200   12.1890 N.3    25  TRP25      -0.1227
     10  CA       -12.5830    8.3780   12.2460 C.3    25  TRP25       0.1737
     11  C        -13.7010    8.9390   13.1270 C.2    25  TRP25       0.2595
     12  O        -13.5110    9.9210   13.8540 O.2    25  TRP25      -0.2718
     13  CB       -12.7010    8.9520   10.8350 C.3    25  TRP25       0.0564
     14  CG       -12.9220   10.4090   10.8130 C.ar   25  TRP25       0.0003
     15  CD1      -14.0520   11.0560   10.4160 C.ar   25  TRP25       0.0946
     16  CD2      -12.0020   11.4180   11.2350 C.ar   25  TRP25       0.0152
     17  NE1      -13.8960   12.4120   10.5680 N.ar   25  TRP25      -0.2442
     18  CE2      -12.6460   12.6630   11.0690 C.ar   25  TRP25       0.0810
     19  CE3      -10.6950   11.3940   11.7450 C.ar   25  TRP25       0.0012
     20  CZ2      -12.0270   13.8790   11.3930 C.ar   25  TRP25       0.0191
     21  CZ3      -10.0820   12.6020   12.0660 C.ar   25  TRP25       0.0001
     22  CH2      -10.7480   13.8250   11.8890 C.ar   25  TRP25       0.0015
     23  N        -14.8790    8.3340   13.0170 N.am   26  GLN26      -0.1979
     24  CA       -16.0410    8.7240   13.8060 C.3    26  GLN26       0.1601
     25  C        -15.8170    8.3700   15.2860 C.2    26  GLN26       0.2287
     26  O        -16.1990    9.1200   16.1740 O.2    26  GLN26      -0.2864
     27  CB       -17.2840    8.0060   13.2790 C.3    26  GLN26       0.0394
     28  CG       -17.6540    8.3950   11.8500 C.3    26  GLN26       0.0908
     29  CD       -18.0190    9.8630   11.7290 C.2    26  GLN26       0.2608
     30  OE1      -18.5670   10.4510   12.6600 O.2    26  GLN26      -0.2717
     31  NE2      -17.7110   10.4650   10.5830 N.am   26  GLN26      -0.0878
     32  N         -7.6220    6.6710    8.8450 N.3    68  TYR68      -0.1241
     33  CA        -7.4150    7.9600    8.2380 C.3    68  TYR68       0.1605
     34  C         -7.0490    9.0600    9.2310 C.2    68  TYR68       0.2264
     35  O         -7.6330    9.1600   10.3060 O.2    68  TYR68      -0.2867
     36  CB        -8.6960    8.3180    7.4780 C.3    68  TYR68       0.0534
     37  CG        -8.9020    9.7830    7.2370 C.ar   68  TYR68      -0.0201
     38  CD1       -9.7690   10.5230    8.0440 C.ar   68  TYR68      -0.0009
     39  CD2       -8.2280   10.4420    6.2060 C.ar   68  TYR68      -0.0009
     40  CE1       -9.9590   11.8910    7.8300 C.ar   68  TYR68       0.0417
     41  CE2       -8.4100   11.8010    5.9880 C.ar   68  TYR68       0.0417
     42  CZ        -9.2750   12.5210    6.8010 C.ar   68  TYR68       0.1957
     43  OH        -9.4470   13.8710    6.5920 O.3    68  TYR68      -0.2866
     44  N         -5.5130    5.3410    4.7350 N.3   125  GLU125     -0.1245
     45  CA        -5.8910    6.3860    3.8020 C.3   125  GLU125      0.1567
     46  C         -5.0200    7.6320    3.7070 C.2   125  GLU125      0.2260
     47  O         -5.3310    8.6670    4.2940 O.2   125  GLU125     -0.2867
     48  CB        -7.3610    6.7850    4.0020 C.3   125  GLU125      0.0388
     49  CG        -7.8380    7.6720    2.8660 C.3   125  GLU125      0.1160
     50  CD        -9.2910    8.0580    2.9120 C.2   125  GLU125      0.3649
     51  OE1       -9.9100    8.0760    3.9920 O.co2 125  GLU125     -0.2457
     52  OE2       -9.8120    8.3820    1.8320 O.co2 125  GLU125     -0.2457
     53  N         -4.2600   11.3500    0.2030 N.3   152  HIS152     -0.1241
     54  CA        -5.6240   11.6250    0.5810 C.3   152  HIS152      0.1621
     55  C         -5.8450   12.8670   -0.2860 C.2   152  HIS152      0.2264
     56  O         -5.4370   12.8730   -1.4520 O.2   152  HIS152     -0.2867
     57  CB        -5.8070   11.9420    2.0670 C.3   152  HIS152      0.0745
     58  CG        -7.2430   12.1850    2.4250 C.ar  152  HIS152      0.0817
     59  ND1       -7.7190   13.4220    2.7930 N.ar  152  HIS152     -0.2268
     60  CD2       -8.3260   11.3780    2.3330 C.ar  152  HIS152      0.1154
     61  CE1       -9.0360   13.3700    2.9030 C.ar  152  HIS152      0.1986
     62  NE2       -9.4280   12.1390    2.6280 N.ar  152  HIS152     -0.2212
     63  N         -5.6970   14.1000   -6.1520 N.3   162  TRP162     -0.1241
     64  CA        -6.7360   14.4340   -7.1100 C.3   162  TRP162      0.1605
     65  C         -6.9900   15.9200   -7.3180 C.2   162  TRP162      0.2264
     66  O         -7.4380   16.3190   -8.3940 O.2   162  TRP162     -0.2867
     67  CB        -8.0360   13.7240   -6.7480 C.3   162  TRP162      0.0550
     68  CG        -8.7680   14.3450   -5.6080 C.ar  162  TRP162      0.0003
     69  CD1       -8.4800   14.2160   -4.2730 C.ar  162  TRP162      0.0946
     70  CD2       -9.9370   15.1720   -5.6880 C.ar  162  TRP162      0.0152
     71  NE1       -9.4040   14.9090   -3.5220 N.ar  162  TRP162     -0.2442
     72  CE2      -10.3110   15.5010   -4.3640 C.ar  162  TRP162      0.0810
     73  CE3      -10.7120   15.6610   -6.7520 C.ar  162  TRP162      0.0012
     74  CZ2      -11.4330   16.2930   -4.0760 C.ar  162  TRP162      0.0191
     75  CZ3      -11.8220   16.4460   -6.4660 C.ar  162  TRP162      0.0001
     76  CH2      -12.1730   16.7530   -5.1380 C.ar  162  TRP162      0.0015
     77  N         -8.4060    9.0360   -4.4100 N.3   198  HIS198     -0.1241
     78  CA        -7.8370   10.3420   -4.0580 C.3   198  HIS198      0.1621
     79  C         -6.5940   10.8150   -4.7850 C.2   198  HIS198      0.2264
     80  O         -6.0900   11.8890   -4.4640 O.2   198  HIS198     -0.2867
     81  CB        -7.5460   10.4150   -2.5470 C.3   198  HIS198      0.0745
     82  CG        -8.7630   10.5500   -1.6900 C.ar  198  HIS198      0.0817
     83  ND1       -9.3400   11.7550   -1.3600 N.ar  198  HIS198     -0.2268
     84  CD2       -9.4950    9.6020   -1.0530 C.ar  198  HIS198      0.1154
     85  CE1      -10.3720   11.5050   -0.5540 C.ar  198  HIS198      0.1986
     86  NE2      -10.5070   10.2140   -0.3380 N.ar  198  HIS198     -0.2212
     87  N        -12.4870    3.4190   -2.9810 N.3   219  HIS219     -0.1241
     88  CA       -13.7420    4.1640   -2.9560 C.3   219  HIS219      0.1621
     89  C        -13.7480    5.3120   -3.9920 C.2   219  HIS219      0.2264
     90  O        -13.5870    6.4920   -3.6630 O.2   219  HIS219     -0.2867
     91  CB       -14.1030    4.6290   -1.5240 C.3   219  HIS219      0.0745
     92  CG       -13.0760    5.5020   -0.8730 C.ar  219  HIS219      0.0817
     93  ND1      -11.7530    5.1490   -0.7040 N.ar  219  HIS219     -0.2268
     94  CD2      -13.1940    6.7500   -0.3660 C.ar  219  HIS219      0.1154
     95  CE1      -11.1230    6.1720   -0.1240 C.ar  219  HIS219      0.1986
     96  NE2      -11.9560    7.1670    0.1010 N.ar  219  HIS219     -0.2212
     97  N        -12.5930   12.9110   -8.3040 N.3   230  ARG230     -0.1245
     98  CA       -12.4110   11.8550   -7.3210 C.3   230  ARG230      0.1563
     99  C        -12.8320   10.5580   -8.0010 C.2   230  ARG230      0.2260
    100  O        -12.6750    9.4710   -7.4520 O.2   230  ARG230     -0.2867
    101  CB       -13.2520   12.1160   -6.0700 C.3   230  ARG230      0.0307
    102  CG       -12.4660   12.8170   -4.9710 C.3   230  ARG230      0.0489
    103  CD       -11.4310   11.8670   -4.3780 C.3   230  ARG230      0.2205
    104  NE       -12.0380   10.9290   -3.4370 N.pl3 230  ARG230     -0.0865
    105  CZ       -12.1200    9.6170   -3.6130 C.cat 230  ARG230      0.5346
    106  NH1      -12.6890    8.8610   -2.6820 N.pl3 230  ARG230      0.1354
    107  NH2      -11.6510    9.0620   -4.7200 N.pl3 230  ARG230      0.1354
    108  N        -20.9210    8.2700   -2.1610 N.3   252  TYR252     -0.1241
    109  CA       -21.1170    9.7040   -1.9190 C.3   252  TYR252      0.1605
    110  C        -21.9460   10.3460   -3.0460 C.2   252  TYR252      0.2264
    111  O        -21.5870   10.2470   -4.2160 O.2   252  TYR252     -0.2867
    112  CB       -19.7480   10.4000   -1.8040 C.3   252  TYR252      0.0534
    113  CG       -19.7790   11.8670   -1.4180 C.ar  252  TYR252     -0.0201
    114  CD1      -18.8020   12.7420   -1.8880 C.ar  252  TYR252     -0.0009
    115  CD2      -20.7480   12.3710   -0.5460 C.ar  252  TYR252     -0.0009
    116  CE1      -18.7730   14.0710   -1.5040 C.ar  252  TYR252      0.0417
    117  CE2      -20.7340   13.7150   -0.1540 C.ar  252  TYR252      0.0417
    118  CZ       -19.7380   14.5550   -0.6390 C.ar  252  TYR252      0.1957
    119  OH       -19.7000   15.8750   -0.2610 O.3   252  TYR252     -0.2866
    120  N        -20.4040   12.4350   -5.8090 N.3   255  TYR255     -0.1241
    121  CA       -19.5160   11.7150   -6.7230 C.3   255  TYR255      0.1605
    122  C        -20.3720   10.7950   -7.6070 C.2   255  TYR255      0.2264
    123  O        -19.9100   10.2720   -8.6230 O.2   255  TYR255     -0.2867
    124  CB       -18.4830   10.8720   -5.9550 C.3   255  TYR255      0.0534
    125  CG       -17.5060   11.6670   -5.1110 C.ar  255  TYR255     -0.0201
    126  CD1      -17.4120   13.0570   -5.2230 C.ar  255  TYR255     -0.0009
    127  CD2      -16.6910   11.0250   -4.1750 C.ar  255  TYR255     -0.0009
    128  CE1      -16.5340   13.7890   -4.4220 C.ar  255  TYR255      0.0417
    129  CE2      -15.8140   11.7470   -3.3650 C.ar  255  TYR255      0.0417
    130  CZ       -15.7400   13.1200   -3.4890 C.ar  255  TYR255      0.1957
    131  OH       -14.8940   13.8240   -2.6590 O.3   255  TYR255     -0.2866
    132  N        -17.7960    4.3050    1.2420 N.3   288  ASP288     -0.1239
    133  CA       -17.3280    5.5110    1.9150 C.3   288  ASP288      0.1674
    134  C        -18.2900    5.9090    3.0500 C.2   288  ASP288      0.2266
    135  O        -18.3660    7.0810    3.4340 O.2   288  ASP288     -0.2867
    136  CB       -17.1440    6.6640    0.9120 C.3   288  ASP288      0.1410
    137  CG       -16.1170    7.6860    1.3650 C.2   288  ASP288      0.3668
    138  OD1      -15.4670    7.4790    2.4210 O.co2 288  ASP288     -0.2456
    139  OD2      -15.9520    8.7030    0.6550 O.co2 288  ASP288     -0.2456
    140  N        -17.7030    8.3410    6.1660 N.3   291  GLY291     -0.1210
    141  CA       -16.6460    9.2060    5.6980 C.3   291  GLY291      0.1956
    142  C        -17.2490   10.3240    4.8710 C.2   291  GLY291      0.2612
    143  O        -16.5450   11.2370    4.4580 O.2   291  GLY291     -0.2717
    144  N        -18.5570   10.2570    4.6270 N.am  292  VAL292     -0.1966
    145  CA       -19.2460   11.2720    3.8230 C.3   292  VAL292      0.1712
    146  C        -20.4850   11.8230    4.5160 C.2   292  VAL292      0.2458
    147  O        -21.0960   11.1460    5.3480 O.2   292  VAL292     -0.2730
    148  CB       -19.6870   10.7070    2.4540 C.3   292  VAL292      0.0289
    149  CG1      -18.4890   10.2520    1.6800 C.3   292  VAL292      0.0023
    150  CG2      -20.6690    9.5670    2.6400 C.3   292  VAL292      0.0023
    151  N        -20.8710   13.0670    4.1830 N.am  293  PRO293     -0.2716
    152  CA       -22.0480   13.7130    4.7700 C.3   293  PRO293      0.1536
    153  C        -23.3740   13.3710    4.0720 C.2   293  PRO293      0.2598
    154  O        -24.4490   13.5750    4.6400 O.2   293  PRO293     -0.2715
    155  CB       -21.7230   15.1960    4.6040 C.3   293  PRO293      0.0310
    156  CG       -20.9980   15.2220    3.3140 C.3   293  PRO293      0.0237
    157  CD       -20.0580   14.0450    3.4360 C.3   293  PRO293      0.0939
    158  N        -23.2920   12.8600    2.8450 N.am  294  ARG294     -0.1978
    159  CA       -24.4820   12.5350    2.0570 C.3   294  ARG294      0.1597
    160  C        -24.4050   11.1890    1.3730 C.2   294  ARG294      0.2287
    161  O        -23.4560   10.9180    0.6420 O.2   294  ARG294     -0.2864
    162  CB       -24.7170   13.6150    0.9850 C.3   294  ARG294      0.0334
    163  CG       -25.2810   14.9240    1.5250 C.3   294  ARG294      0.0492
    164  CD       -25.2130   16.0300    0.5030 C.3   294  ARG294      0.2205
    165  NE       -23.8390   16.3820    0.1670 N.pl3 294  ARG294     -0.0865
    166  CZ       -23.1040   17.2710    0.8310 C.cat 294  ARG294      0.5346
    167  NH1      -21.8600   17.5280    0.4460 N.pl3 294  ARG294      0.1354
    168  NH2      -23.6070   17.9100    1.8760 N.pl3 294  ARG294      0.1354
@<TRIPOS>BOND
     1   123   122    2
     2    66    65    2
     3    97    98    1
     4    99   100    2
     5    99    98    1
     6   122   121    1
     7    98   101    1
     8    65    64    1
     9    64    67    1
    10    64    63    1
    11    73    75   ar
    12    73    70   ar
    13    67    68    1
    14   121   124    1
    15   121   120    1
    16    75    76   ar
    17   101   102    1
    18   124   125    1
    19    70    68   ar
    20    70    72   ar
    21    68    69   ar
    22   126   125   ar
    23   126   128   ar
    24    76    74   ar
    25   125   127   ar
    26   102   103    1
    27    79    80    2
    28    79    78    1
    29   107   105    1
    30   128   130   ar
    31    77    78    1
    32   103   104    1
    33    72    74   ar
    34    72    71   ar
    35    69    71   ar
    36   111   110    2
    37   127   129   ar
    38    78    81    1
    39    89    90    2
    40    89    88    1
    41   105   104    2
    42   105   106    1
    43   130   129   ar
    44   130   131    1
    45   110   109    1
    46    87    88    1
    47    88    91    1
    48    81    82    1
    49   108   109    1
    50   109   112    1
    51   114   116   ar
    52   114   113   ar
    53   112   113    1
    54    82    83   ar
    55    82    84   ar
    56    91    92    1
    57   116   118   ar
    58    56    55    2
    59   113   115   ar
    60    83    85   ar
    61    84    86   ar
    62    92    93   ar
    63    92    94   ar
    64    93    95   ar
    65   118   119    1
    66   118   117   ar
    67    85    86   ar
    68   115   117   ar
    69    94    96   ar
    70    55    54    1
    71    95    96   ar
    72   165   164    1
    73   165   166    2
    74    53    54    1
    75   167   166    1
    76   164   163    1
    77    54    57    1
    78   161   160    2
    79   139   137   ar
    80   166   168    1
    81   136   137    1
    82   136   133    1
    83   162   163    1
    84   162   159    1
    85   132   133    1
    86   137   138   ar
    87   160   159    1
    88   149   148    1
    89    52    50   ar
    90   133   134    1
    91   159   158    1
    92    57    58    1
    93    60    58   ar
    94    60    62   ar
    95    58    59   ar
    96   148   150    1
    97   148   145    1
    98    62    61   ar
    99    59    61   ar
   100   158   153   am
   101    49    50    1
   102    49    48    1
   103    50    51   ar
   104   134   135    2
   105   156   157    1
   106   156   155    1
   107   157   151    1
   108    46    45    1
   109    46    47    2
   110    45    48    1
   111    45    44    1
   112   145   146    1
   113   145   144    1
   114   153   154    2
   115   153   152    1
   116   151   146   am
   117   151   152    1
   118   143   142    2
   119   146   147    2
   120   155   152    1
   121   144   142   am
   122   142   141    1
   123     7     6   ar
   124   141   140    1
   125    41    39   ar
   126    41    42   ar
   127    39    37   ar
   128     6     8   ar
   129     6     5    1
   130    43    42    1
   131    42    40   ar
   132     1     2    1
   133    37    36    1
   134    37    38   ar
   135     5     2    1
   136    36    33    1
   137    40    38   ar
   138     2     3    1
   139    33    32    1
   140    33    34    1
   141    34    35    2
   142     3     4    2
   143    15    17   ar
   144    15    14   ar
   145    17    18   ar
   146    31    29   am
   147    14    13    1
   148    14    16   ar
   149    13    10    1
   150    18    16   ar
   151    18    20   ar
   152    16    19   ar
   153    20    22   ar
   154    29    28    1
   155    29    30    2
   156    19    21   ar
   157    28    27    1
   158    22    21   ar
   159     9    10    1
   160    10    11    1
   161    23    11   am
   162    23    24    1
   163    11    12    2
   164    27    24    1
   165    24    25    1
   166    25    26    2
