@<TRIPOS>MOLECULE
tmp/1itwB00.pdb
 130 120 0 0 0
SMALL
GASTEIGER

@<TRIPOS>ATOM
      1  N         51.9290   22.8970   10.1220 N.3    86  SER86      -0.1217
      2  CA        52.5550   23.3860   11.3450 C.3    86  SER86       0.1889
      3  C         51.2890   23.3300   12.1950 C.2    86  SER86       0.2288
      4  O         50.5120   24.2790   12.2450 O.2    86  SER86      -0.2866
      5  CB        53.0490   24.8280   11.1890 C.3    86  SER86       0.2089
      6  OG        54.2550   24.8740   10.4460 O.3    86  SER86      -0.2183
      7  N         55.5470   24.8330   14.1600 N.3   131  SER131     -0.1217
      8  CA        56.5570   24.7830   13.1050 C.3   131  SER131      0.1889
      9  C         57.7140   23.9000   13.5630 C.2   131  SER131      0.2288
     10  O         58.7560   24.3930   13.9940 O.2   131  SER131     -0.2866
     11  CB        57.0620   26.2010   12.8060 C.3   131  SER131      0.2089
     12  OG        57.9490   26.2090   11.6990 O.3   131  SER131     -0.2183
     13  N         60.6730   22.8550    9.5900 N.3   134  ASN134     -0.1226
     14  CA        61.6670   23.7680    9.0340 C.3   134  ASN134      0.1770
     15  C         62.9390   23.9390    9.8750 C.2   134  ASN134      0.2439
     16  O         64.0420   23.9320    9.3330 O.2   134  ASN134     -0.2733
     17  CB        61.0310   25.1380    8.7520 C.3   134  ASN134      0.1168
     18  CG        60.0420   25.0970    7.5940 C.2   134  ASN134      0.2627
     19  OD1       60.0870   24.1950    6.7550 O.2   134  ASN134     -0.2716
     20  ND2       59.1510   26.0840    7.5360 N.am  134  ASN134     -0.0877
     21  N         62.8080   24.0710   11.2060 N.am  135  PRO135     -0.2729
     22  CA        64.0070   24.2410   12.0370 C.3   135  PRO135      0.1401
     23  C         65.0070   23.0950   11.9010 C.2   135  PRO135      0.2269
     24  O         66.2120   23.2890   12.0540 O.2   135  PRO135     -0.2865
     25  CB        63.4420   24.3400   13.4530 C.3   135  PRO135      0.0296
     26  CG        62.0580   24.9240   13.2270 C.3   135  PRO135      0.0237
     27  CD        61.5850   24.1480   12.0240 C.3   135  PRO135      0.0939
     28  N         66.3110   23.1850    7.6970 N.3   138  ARG138     -0.1245
     29  CA        67.0500   24.3560    7.2500 C.3   138  ARG138      0.1563
     30  C         68.4610   24.4980    7.8100 C.2   138  ARG138      0.2260
     31  O         68.7460   25.3860    8.6100 O.2   138  ARG138     -0.2867
     32  CB        66.2150   25.6090    7.5160 C.3   138  ARG138      0.0307
     33  CG        65.0070   25.6790    6.5800 C.3   138  ARG138      0.0489
     34  CD        64.0620   26.8310    6.8960 C.3   138  ARG138      0.2205
     35  NE        62.9810   26.9100    5.9140 N.pl3 138  ARG138     -0.0865
     36  CZ        61.9750   27.7770    5.9790 C.cat 138  ARG138      0.5346
     37  NH1       61.9100   28.6420    6.9830 N.pl3 138  ARG138      0.1354
     38  NH2       61.0370   27.7830    5.0380 N.pl3 138  ARG138      0.1354
     39  N         65.8310   32.3570   -2.5520 N.3   144  ARG144     -0.1245
     40  CA        64.4420   32.3540   -3.0220 C.3   144  ARG144      0.1563
     41  C         64.2120   33.3860   -4.1120 C.2   144  ARG144      0.2260
     42  O         64.4240   34.5820   -3.9070 O.2   144  ARG144     -0.2867
     43  CB        63.4670   32.6360   -1.8790 C.3   144  ARG144      0.0307
     44  CG        63.1130   31.4300   -1.0500 C.3   144  ARG144      0.0489
     45  CD        61.9360   31.7340   -0.1340 C.3   144  ARG144      0.2205
     46  NE        61.4900   30.5320    0.5600 N.pl3 144  ARG144     -0.0865
     47  CZ        60.5480   30.5060    1.4950 C.cat 144  ARG144      0.5346
     48  NH1       59.9360   31.6260    1.8620 N.pl3 144  ARG144      0.1354
     49  NH2       60.2170   29.3540    2.0620 N.pl3 144  ARG144      0.1354
     50  N         52.9380   36.7550   13.7640 N.3   254  LYS254     -0.1245
     51  CA        53.4040   35.4570   13.2520 C.3   254  LYS254      0.1561
     52  C         53.2400   34.4690   14.4030 C.2   254  LYS254      0.2260
     53  O         54.1890   33.8080   14.8140 O.2   254  LYS254     -0.2867
     54  CB        54.8830   35.5680   12.8550 C.3   254  LYS254      0.0271
     55  CG        55.5080   34.3230   12.2040 C.3   254  LYS254      0.0035
     56  CD        55.3360   34.3050   10.6850 C.3   254  LYS254      0.0206
     57  CE        56.1050   33.1320   10.0650 C.3   254  LYS254      0.1093
     58  NZ        56.0090   33.0940    8.5730 N.3   254  LYS254     -0.1314
     59  N         51.8440   31.3960   14.9080 N.3   256  THR256     -0.1203
     60  CA        52.1670   29.9740   14.8660 C.3   256  THR256      0.1994
     61  C         53.6610   29.6830   15.0280 C.2   256  THR256      0.2617
     62  O         54.0370   28.8270   15.8280 O.2   256  THR256     -0.2717
     63  CB        51.6560   29.3170   13.5670 C.3   256  THR256      0.1784
     64  OG1       50.2220   29.3850   13.5360 O.3   256  THR256     -0.2211
     65  CG2       52.0740   27.8480   13.5080 C.3   256  THR256      0.0376
     66  N         54.5070   30.3920   14.2840 N.am  257  MET257     -0.1979
     67  CA        55.9520   30.1700   14.3750 C.3   257  MET257      0.1605
     68  C         56.5390   30.8010   15.6390 C.2   257  MET257      0.2287
     69  O         57.2860   30.1540   16.3660 O.2   257  MET257     -0.2864
     70  CB        56.6540   30.7210   13.1280 C.3   257  MET257      0.0413
     71  CG        58.1210   30.3080   12.9910 C.3   257  MET257      0.0598
     72  SD        59.2210   31.3090   13.9960 S.3   257  MET257     -0.1393
     73  CE        59.3070   32.7960   12.9890 C.3   257  MET257      0.0692
     74  N         53.4720   37.7220    7.1720 N.3   349  ASP349     -0.1239
     75  CA        54.1920   37.5700    5.9120 C.3   349  ASP349      0.1674
     76  C         53.2910   37.4840    4.6850 C.2   349  ASP349      0.2266
     77  O         53.6680   37.9400    3.6020 O.2   349  ASP349     -0.2867
     78  CB        55.1550   36.3620    5.9490 C.3   349  ASP349      0.1410
     79  CG        54.4390   35.0310    6.0890 C.2   349  ASP349      0.3668
     80  OD1       54.9630   34.0220    5.5640 O.co2 349  ASP349     -0.2456
     81  OD2       53.3690   34.9880    6.7280 O.co2 349  ASP349     -0.2456
     82  N         63.9570   32.9420   14.6620 N.3   419  TYR419     -0.1241
     83  CA        63.4890   31.5720   14.4910 C.3   419  TYR419      0.1605
     84  C         63.9510   30.5790   15.5510 C.2   419  TYR419      0.2264
     85  O         63.3440   29.5300   15.7140 O.2   419  TYR419     -0.2867
     86  CB        63.8580   31.0520   13.1000 C.3   419  TYR419      0.0534
     87  CG        62.9490   31.6040   12.0270 C.ar  419  TYR419     -0.0201
     88  CD1       62.9690   32.9620   11.7000 C.ar  419  TYR419     -0.0009
     89  CD2       62.0290   30.7830   11.3790 C.ar  419  TYR419     -0.0009
     90  CE1       62.0910   33.4890   10.7570 C.ar  419  TYR419      0.0417
     91  CE2       61.1460   31.2990   10.4360 C.ar  419  TYR419      0.0417
     92  CZ        61.1830   32.6530   10.1320 C.ar  419  TYR419      0.1957
     93  OH        60.3060   33.1690    9.2070 O.3   419  TYR419     -0.2866
     94  N         63.6920   37.6830    5.3700 N.3   546  ARG546     -0.1231
     95  CA        63.7000   36.6830    4.3080 C.3   546  ARG546      0.1694
     96  C         62.2440   36.2510    4.1200 C.2   546  ARG546      0.2592
     97  O         61.7180   36.2190    3.0100 O.2   546  ARG546     -0.2718
     98  CB        64.5310   35.4650    4.7270 C.3   546  ARG546      0.0321
     99  CG        64.3140   34.2210    3.8580 C.3   546  ARG546      0.0489
    100  CD        64.7440   32.9550    4.6050 C.3   546  ARG546      0.2205
    101  NE        64.0280   32.8440    5.8760 N.pl3 546  ARG546     -0.0865
    102  CZ        62.8240   32.2970    6.0260 C.cat 546  ARG546      0.5346
    103  NH1       62.1840   31.7790    4.9860 N.pl3 546  ARG546      0.1354
    104  NH2       62.2340   32.3160    7.2160 N.pl3 546  ARG546      0.1354
    105  N         61.6090   35.9120    5.2340 N.am  547  ASP547     -0.1974
    106  CA        60.2170   35.4860    5.2420 C.3   547  ASP547      0.1709
    107  C         59.3000   36.5530    4.6220 C.2   547  ASP547      0.2293
    108  O         58.5350   36.2730    3.7000 O.2   547  ASP547     -0.2864
    109  CB        59.7720   35.2140    6.6860 C.3   547  ASP547      0.1436
    110  CG        58.3530   34.6850    6.7660 C.2   547  ASP547      0.3671
    111  OD1       57.6320   35.0440    7.7230 O.co2 547  ASP547     -0.2456
    112  OD2       57.9670   33.9010    5.8760 O.co2 547  ASP547     -0.2456
    113  N         62.8080   23.4510   -1.4220 N.3   578  GLU578     -0.1245
    114  CA        61.4410   23.6240   -0.9380 C.3   578  GLU578      0.1567
    115  C         60.5130   24.0450   -2.0780 C.2   578  GLU578      0.2260
    116  O         60.6900   25.0970   -2.6910 O.2   578  GLU578     -0.2867
    117  CB        61.4120   24.6580    0.1970 C.3   578  GLU578      0.0388
    118  CG        62.0930   24.1760    1.4880 C.3   578  GLU578      0.1160
    119  CD        62.0140   25.1890    2.6280 C.2   578  GLU578      0.3649
    120  OE1       60.9590   25.8430    2.7730 O.co2 578  GLU578     -0.2457
    121  OE2       62.9980   25.3200    3.3920 O.co2 578  GLU578     -0.2457
    122  N         57.3730   24.9610   -1.9300 N.3   580  GLY580     -0.1210
    123  CA        56.4220   26.0120   -1.6220 C.3   580  GLY580      0.1956
    124  C         56.6010   26.5660   -0.2230 C.2   580  GLY580      0.2611
    125  O         57.0510   25.8640    0.6820 O.2   580  GLY580     -0.2717
    126  N         56.2230   27.8250   -0.0440 N.am  581  ALA581     -0.1979
    127  CA        56.3640   28.4950    1.2400 C.3   581  ALA581      0.1597
    128  C         55.0620   28.6210    2.0170 C.2   581  ALA581      0.2287
    129  O         55.0530   29.1500    3.1250 O.2   581  ALA581     -0.2864
    130  CB        56.9750   29.8800    1.0230 C.3   581  ALA581      0.0319
@<TRIPOS>BOND
     1    41    42    2
     2    41    40    1
     3    40    39    1
     4    40    43    1
     5   116   115    2
     6   115   114    1
     7   122   123    1
     8    43    44    1
     9   123   124    1
    10   113   114    1
    11    44    45    1
    12   114   117    1
    13   124   126   am
    14   124   125    2
    15    45    46    1
    16   126   127    1
    17   117   118    1
    18    46    47    2
    19   130   127    1
    20   127   128    1
    21   118   119    1
    22    47    48    1
    23    47    49    1
    24   128   129    2
    25   119   120   ar
    26   119   121   ar
    27    97    96    2
    28    77    76    2
    29   108   107    2
    30    99   100    1
    31    99    98    1
    32    96    95    1
    33    96   105   am
    34    95    98    1
    35    95    94    1
    36   100   101    1
    37   107   106    1
    38    76    75    1
    39   103   102    1
    40    38    36    1
    41   105   106    1
    42   106   109    1
    43    80    79   ar
    44   112   110   ar
    45   101   102    2
    46    75    78    1
    47    75    74    1
    48    35    36    2
    49    35    34    1
    50    78    79    1
    51    36    37    1
    52   102   104    1
    53    79    81   ar
    54    33    34    1
    55    33    32    1
    56   109   110    1
    57    19    18    2
    58   110   111   ar
    59    29    32    1
    60    29    28    1
    61    29    30    1
    62    20    18   am
    63    18    17    1
    64    30    31    2
    65    58    57    1
    66    17    14    1
    67    14    13    1
    68    14    15    1
    69    93    92    1
    70    16    15    2
    71    15    21   am
    72    57    56    1
    73     1     2    1
    74    92    91   ar
    75    92    90   ar
    76    91    89   ar
    77     6     5    1
    78    56    55    1
    79    90    88   ar
    80     5     2    1
    81    21    27    1
    82    21    22    1
    83     2     3    1
    84    89    87   ar
    85    12    11    1
    86    88    87   ar
    87    23    22    1
    88    23    24    2
    89    27    26    1
    90    87    86    1
    91    22    25    1
    92     3     4    2
    93    55    54    1
    94    11     8    1
    95    54    51    1
    96    73    72    1
    97    71    70    1
    98    71    72    1
    99    86    83    1
   100     8     9    1
   101     8     7    1
   102    70    67    1
   103    26    25    1
   104    51    50    1
   105    51    52    1
   106    65    63    1
   107    64    63    1
   108     9    10    2
   109    63    60    1
   110    66    67    1
   111    66    61   am
   112    67    68    1
   113    52    53    2
   114    83    82    1
   115    83    84    1
   116    60    59    1
   117    60    61    1
   118    61    62    2
   119    84    85    2
   120    68    69    2
