@<TRIPOS>MOLECULE
tmp/1itzB01.pdb
 149 141 0 0 0
SMALL
GASTEIGER

@<TRIPOS>ATOM
      1  N          2.8420   64.4970   11.3160 N.3    29  HIS29      -0.1241
      2  CA         2.2220   63.2620   11.7590 C.3    29  HIS29       0.1621
      3  C          1.4930   62.5420   10.6540 C.2    29  HIS29       0.2264
      4  O          0.3850   62.9180   10.2900 O.2    29  HIS29      -0.2867
      5  CB         1.2550   63.5890   12.8940 C.3    29  HIS29       0.0745
      6  CG         1.9060   64.3080   14.0290 C.ar   29  HIS29       0.0817
      7  ND1        2.3490   65.6120   13.9270 N.ar   29  HIS29      -0.2268
      8  CD2        2.2630   63.8830   15.2660 C.ar   29  HIS29       0.1154
      9  CE1        2.9550   65.9570   15.0520 C.ar   29  HIS29       0.1986
     10  NE2        2.9170   64.9260   15.8800 N.ar   29  HIS29      -0.2212
     11  N         -2.1320   59.2220   11.8930 N.3    32  LEU32      -0.1245
     12  CA        -3.5690   59.4630   12.0030 C.3    32  LEU32       0.1561
     13  C         -4.2320   59.6420   10.6290 C.2    32  LEU32       0.2260
     14  O         -5.2860   59.0570   10.3660 O.2    32  LEU32      -0.2867
     15  CB        -3.8430   60.6860   12.9050 C.3    32  LEU32       0.0270
     16  CG        -5.3180   60.9590   13.2330 C.3    32  LEU32       0.0019
     17  CD1       -5.4340   61.8260   14.4530 C.3    32  LEU32       0.0001
     18  CD2       -6.0010   61.6250   12.0550 C.3    32  LEU32       0.0001
     19  N         -7.8680   65.8190   17.4750 N.3    67  ALA67      -0.1245
     20  CA        -6.5400   65.2250   17.4830 C.3    67  ALA67       0.1562
     21  C         -5.7720   66.0630   16.4570 C.2    67  ALA67       0.2260
     22  O         -5.4120   65.5820   15.3740 O.2    67  ALA67      -0.2867
     23  CB        -6.6260   63.7840   17.0250 C.3    67  ALA67       0.0290
     24  N         -2.7900   67.0660   15.8560 N.3    69  HIS69      -0.1241
     25  CA        -1.5530   66.6530   15.1990 C.3    69  HIS69       0.1621
     26  C         -1.8060   66.0460   13.8150 C.2    69  HIS69       0.2264
     27  O         -0.9510   66.1160   12.9260 O.2    69  HIS69      -0.2867
     28  CB        -0.7760   65.6490   16.0690 C.3    69  HIS69       0.0745
     29  CG        -1.5800   64.4520   16.4910 C.ar   69  HIS69       0.0817
     30  ND1       -2.4680   64.4840   17.5460 N.ar   69  HIS69      -0.2268
     31  CD2       -1.6150   63.1870   16.0070 C.ar   69  HIS69       0.1154
     32  CE1       -3.0130   63.2900   17.6930 C.ar   69  HIS69       0.1986
     33  NE2       -2.5140   62.4860   16.7710 N.ar   69  HIS69      -0.2212
     34  N         -0.3750   72.5230   13.3070 N.3   104  HIS104     -0.1241
     35  CA        -1.6130   72.2020   14.0190 C.3   104  HIS104      0.1621
     36  C         -2.6580   73.1610   13.4410 C.2   104  HIS104      0.2264
     37  O         -2.3440   74.3100   13.1310 O.2   104  HIS104     -0.2867
     38  CB        -1.4350   72.3610   15.5360 C.3   104  HIS104      0.0745
     39  CG        -0.6150   71.2660   16.1530 C.ar  104  HIS104      0.0817
     40  ND1        0.7560   71.3490   16.3010 N.ar  104  HIS104     -0.2268
     41  CD2       -0.9570   70.0120   16.5420 C.ar  104  HIS104      0.1154
     42  CE1        1.2220   70.1930   16.7440 C.ar  104  HIS104      0.1986
     43  NE2        0.2030   69.3660   16.8950 N.ar  104  HIS104     -0.2212
     44  N         -4.6690   71.1510   18.8970 N.3   118  GLY118     -0.1210
     45  CA        -3.2570   70.8060   19.0700 C.3   118  GLY118      0.1940
     46  C         -3.1490   70.3970   20.5350 C.2   118  GLY118      0.2454
     47  O         -2.6090   69.3450   20.8440 O.2   118  GLY118     -0.2732
     48  N         -3.6070   71.2420   21.4750 N.am  119  PRO119     -0.2717
     49  CA        -3.5520   70.8590   22.8940 C.3   119  PRO119      0.1535
     50  C         -4.7080   69.8480   22.9740 C.2   119  PRO119      0.2598
     51  O         -5.8510   70.2010   22.7080 O.2   119  PRO119     -0.2715
     52  CB        -3.8990   72.1610   23.6210 C.3   119  PRO119      0.0310
     53  CG        -3.4210   73.2180   22.6420 C.3   119  PRO119      0.0237
     54  CD        -3.9130   72.6740   21.3360 C.3   119  PRO119      0.0939
     55  N         -4.4260   68.6120   23.3460 N.am  120  LEU120     -0.1978
     56  CA        -5.4640   67.5850   23.3560 C.3   120  LEU120      0.1596
     57  C         -6.6850   67.8350   24.2440 C.2   120  LEU120      0.2287
     58  O         -6.5960   68.4230   25.3310 O.2   120  LEU120     -0.2864
     59  CB        -4.8180   66.2340   23.6740 C.3   120  LEU120      0.0297
     60  CG        -3.7680   65.7970   22.6360 C.3   120  LEU120      0.0022
     61  CD1       -2.8100   64.7730   23.2190 C.3   120  LEU120      0.0001
     62  CD2       -4.4720   65.2190   21.4260 C.3   120  LEU120      0.0001
     63  N         -8.8920   61.2180   19.3020 N.3   158  GLY158     -0.1210
     64  CA        -8.0840   60.0320   19.4970 C.3   158  GLY158      0.1956
     65  C         -7.9930   59.6690   20.9610 C.2   158  GLY158      0.2612
     66  O         -8.6710   60.2700   21.7990 O.2   158  GLY158     -0.2717
     67  N         -7.1430   58.6960   21.2690 N.am  159  ASP159     -0.1959
     68  CA        -6.9670   58.2350   22.6440 C.3   159  ASP159      0.1840
     69  C         -6.4920   59.3620   23.5420 C.2   159  ASP159      0.2623
     70  O         -6.9310   59.4640   24.6930 O.2   159  ASP159     -0.2715
     71  CB        -5.9690   57.0720   22.6930 C.3   159  ASP159      0.1450
     72  CG        -6.3720   55.9270   21.7810 C.2   159  ASP159      0.3671
     73  OD1       -5.6380   55.6250   20.8120 O.co2 159  ASP159     -0.2456
     74  OD2       -7.4380   55.3270   22.0320 O.co2 159  ASP159     -0.2456
     75  N         -5.5970   60.2040   23.0230 N.am  160  GLY160     -0.1940
     76  CA        -5.0970   61.3190   23.8170 C.3   160  GLY160      0.2014
     77  C         -6.2260   62.1980   24.3430 C.2   160  GLY160      0.2639
     78  O         -6.2410   62.5520   25.5200 O.2   160  GLY160     -0.2714
     79  N         -7.1730   62.5570   23.4720 N.am  161  CYS161     -0.1967
     80  CA        -8.3070   63.3790   23.8830 C.3   161  CYS161      0.1712
     81  C         -9.1750   62.6360   24.8940 C.2   161  CYS161      0.2296
     82  O         -9.6900   63.2460   25.8330 O.2   161  CYS161     -0.2864
     83  CB        -9.1600   63.7710   22.6670 C.3   161  CYS161      0.0983
     84  SG        -8.3690   64.9700   21.5250 S.3   161  CYS161     -0.0798
     85  N         -7.8090   62.9560   28.5200 N.3   164  GLU164     -0.1245
     86  CA        -7.8610   64.2910   29.1190 C.3   164  GLU164      0.1567
     87  C         -9.1470   64.5810   29.9020 C.2   164  GLU164      0.2260
     88  O        -10.2650   64.4030   29.4030 O.2   164  GLU164     -0.2867
     89  CB        -7.6750   65.3600   28.0320 C.3   164  GLU164      0.0388
     90  CG        -6.2580   65.4770   27.4960 C.3   164  GLU164      0.1160
     91  CD        -5.2690   65.9570   28.5490 C.2   164  GLU164      0.3649
     92  OE1       -5.7310   66.3800   29.6370 O.co2 164  GLU164     -0.2457
     93  OE2       -4.0370   65.9180   28.2860 O.co2 164  GLU164     -0.2457
     94  N        -11.1160   57.7180   17.0420 N.3   187  ASP187     -0.1239
     95  CA       -10.1560   56.8980   16.3100 C.3   187  ASP187      0.1674
     96  C         -9.5220   55.9250   17.2860 C.2   187  ASP187      0.2266
     97  O         -8.5200   56.2330   17.9410 O.2   187  ASP187     -0.2867
     98  CB        -9.0880   57.7690   15.6610 C.3   187  ASP187      0.1410
     99  CG        -8.0170   56.9510   14.9630 C.2   187  ASP187      0.3668
    100  OD1       -8.2520   55.7420   14.7140 O.co2 187  ASP187     -0.2456
    101  OD2       -6.9450   57.5260   14.6530 O.co2 187  ASP187     -0.2456
    102  N         -7.3180   53.3740   17.7740 N.3   189  ASN189     -0.1240
    103  CA        -6.2050   52.6330   17.1850 C.3   189  ASN189      0.1653
    104  C         -5.2220   51.9610   18.1510 C.2   189  ASN189      0.2266
    105  O         -4.1990   51.4220   17.7180 O.2   189  ASN189     -0.2867
    106  CB        -5.4410   53.5180   16.1740 C.3   189  ASN189      0.1155
    107  CG        -4.7680   54.7320   16.8150 C.2   189  ASN189      0.2627
    108  OD1       -4.5300   54.7760   18.0240 O.2   189  ASN189     -0.2716
    109  ND2       -4.4300   55.7180   15.9840 N.am  189  ASN189     -0.0877
    110  N         -2.9560   53.0170   20.0010 N.3   191  ILE191     -0.1231
    111  CA        -1.5960   53.5660   20.0090 C.3   191  ILE191      0.1692
    112  C         -1.5560   55.0210   20.4930 C.2   191  ILE191      0.2593
    113  O         -2.4240   55.8180   20.1590 O.2   191  ILE191     -0.2718
    114  CB        -0.9590   53.5270   18.5750 C.3   191  ILE191      0.0266
    115  CG1       -0.5620   52.0930   18.2100 C.3   191  ILE191      0.0019
    116  CG2        0.2620   54.4520   18.5030 C.3   191  ILE191      0.0020
    117  CD1        0.6840   51.5910   18.9420 C.3   191  ILE191      0.0001
    118  N         -0.5540   55.3610   21.2900 N.am  192  SER192     -0.1938
    119  CA        -0.3960   56.7410   21.7250 C.3   192  SER192      0.2055
    120  C          1.1040   56.9400   21.5900 C.2   192  SER192      0.2642
    121  O          1.7790   56.0730   21.0350 O.2   192  SER192     -0.2714
    122  CB        -0.9020   56.9540   23.1650 C.3   192  SER192      0.2130
    123  OG        -0.0170   56.4370   24.1280 O.3   192  SER192     -0.2179
    124  N          1.6510   58.0510   22.0670 N.am  193  ILE193     -0.1977
    125  CA         3.0910   58.2560   21.9070 C.3   193  ILE193      0.1596
    126  C          3.9780   57.2800   22.6800 C.2   193  ILE193      0.2287
    127  O          5.0490   56.8970   22.1920 O.2   193  ILE193     -0.2864
    128  CB         3.4710   59.6920   22.2360 C.3   193  ILE193      0.0276
    129  CG1        2.8720   60.6140   21.1590 C.3   193  ILE193      0.0022
    130  CG2        4.9970   59.8350   22.3190 C.3   193  ILE193      0.0022
    131  CD1        3.2490   62.0840   21.2910 C.3   193  ILE193      0.0001
    132  N         -3.1870   52.6890   12.9400 N.3   252  ILE252     -0.1245
    133  CA        -2.4170   53.8850   12.6680 C.3   252  ILE252      0.1561
    134  C         -1.3600   53.5350   11.6140 C.2   252  ILE252      0.2260
    135  O         -0.8060   52.4370   11.6210 O.2   252  ILE252     -0.2867
    136  CB        -1.7760   54.4180   13.9870 C.3   252  ILE252      0.0252
    137  CG1       -1.2040   55.8200   13.7640 C.3   252  ILE252      0.0019
    138  CG2       -0.7080   53.4460   14.4960 C.3   252  ILE252      0.0019
    139  CD1       -0.7970   56.5300   15.0540 C.3   252  ILE252      0.0001
    140  N          3.4900   57.5150   14.3650 N.3   266  HIS266     -0.1241
    141  CA         2.6500   58.5550   14.9380 C.3   266  HIS266      0.1621
    142  C          3.0850   59.9680   14.5640 C.2   266  HIS266      0.2264
    143  O          2.2950   60.7550   14.0380 O.2   266  HIS266     -0.2867
    144  CB         2.6510   58.4700   16.4570 C.3   266  HIS266      0.0745
    145  CG         2.2230   59.7410   17.1190 C.ar  266  HIS266      0.0817
    146  ND1        0.9020   60.1150   17.2260 N.ar  266  HIS266     -0.2268
    147  CD2        2.9460   60.7630   17.6360 C.ar  266  HIS266      0.1154
    148  CE1        0.8280   61.3140   17.7790 C.ar  266  HIS266      0.1986
    149  NE2        2.0540   61.7290   18.0370 N.ar  266  HIS266     -0.2212
@<TRIPOS>BOND
     1     4     3    2
     2    14    13    2
     3    13    12    1
     4     3     2    1
     5     1     2    1
     6   134   135    2
     7   134   133    1
     8     2     5    1
     9    11    12    1
    10    12    15    1
    11    18    16    1
    12   133   132    1
    13   133   136    1
    14     5     6    1
    15    15    16    1
    16    27    26    2
    17    37    36    2
    18    16    17    1
    19    34    35    1
    20    36    35    1
    21   137   136    1
    22   137   139    1
    23    26    25    1
    24     7     6   ar
    25     7     9   ar
    26   136   138    1
    27    35    38    1
    28     6     8   ar
    29   143   142    2
    30   140   141    1
    31   142   141    1
    32   101    99   ar
    33   100    99   ar
    34   141   144    1
    35    99    98    1
    36     9    10   ar
    37    25    24    1
    38    25    28    1
    39     8    10   ar
    40    22    21    2
    41    38    39    1
    42    98    95    1
    43   109   107   am
    44    31    29   ar
    45    31    33   ar
    46    28    29    1
    47    39    40   ar
    48    39    41   ar
    49   106   107    1
    50   106   103    1
    51    40    42   ar
    52    95    94    1
    53    95    96    1
    54   144   145    1
    55    21    20    1
    56    29    30   ar
    57    41    43   ar
    58    42    43   ar
    59    33    32   ar
    60   107   108    2
    61    23    20    1
    62   145   146   ar
    63   145   147   ar
    64   103   102    1
    65   103   104    1
    66   146   148   ar
    67    96    97    2
    68    19    20    1
    69    30    32   ar
    70   147   149   ar
    71   105   104    2
    72   148   149   ar
    73   115   114    1
    74   115   117    1
    75   116   114    1
    76   114   111    1
    77    44    45    1
    78    45    46    1
    79    63    64    1
    80    64    65    1
    81   110   111    1
    82   111   112    1
    83   113   112    2
    84   112   118   am
    85    46    47    2
    86    46    48   am
    87    73    72   ar
    88    65    67   am
    89    65    66    2
    90   121   120    2
    91   129   131    1
    92   129   128    1
    93    67    68    1
    94   118   119    1
    95    54    48    1
    96    54    53    1
    97    62    60    1
    98    48    49    1
    99    84    83    1
   100   120   119    1
   101   120   124   am
   102   119   122    1
   103    72    74   ar
   104    72    71    1
   105   125   124    1
   106   125   128    1
   107   125   126    1
   108   127   126    2
   109   128   130    1
   110    60    61    1
   111    60    59    1
   112    53    52    1
   113    68    71    1
   114    68    69    1
   115    83    80    1
   116    51    50    2
   117    49    50    1
   118    49    52    1
   119    50    55   am
   120    75    69   am
   121    75    76    1
   122   122   123    1
   123    55    56    1
   124    56    59    1
   125    56    57    1
   126    79    80    1
   127    79    77   am
   128    69    70    2
   129    76    77    1
   130    80    81    1
   131    57    58    2
   132    77    78    2
   133    81    82    2
   134    90    89    1
   135    90    91    1
   136    89    86    1
   137    93    91   ar
   138    85    86    1
   139    91    92   ar
   140    86    87    1
   141    88    87    2
