@<TRIPOS>MOLECULE
tmp/1itzB00.pdb
 88 85 0 0 0
SMALL
GASTEIGER

@<TRIPOS>ATOM
      1  N        -19.6120   78.3120   36.7160 N.3   382  ALA382     -0.1231
      2  CA       -19.3150   76.9190   37.0260 C.3   382  ALA382      0.1694
      3  C        -19.7350   76.6580   38.4700 C.2   382  ALA382      0.2592
      4  O        -18.9060   76.6560   39.3760 O.2   382  ALA382     -0.2718
      5  CB       -17.8140   76.6330   36.8550 C.3   382  ALA382      0.0304
      6  N        -21.0370   76.4780   38.6760 N.am  383  ASP383     -0.1960
      7  CA       -21.6050   76.1930   39.9910 C.3   383  ASP383      0.1840
      8  C        -21.3900   77.2830   41.0130 C.2   383  ASP383      0.2621
      9  O        -21.4010   77.0180   42.2060 O.2   383  ASP383     -0.2715
     10  CB       -21.0280   74.8960   40.5460 C.3   383  ASP383      0.1450
     11  CG       -21.8430   74.3550   41.6960 C.2   383  ASP383      0.3671
     12  OD1      -23.0780   74.2730   41.5380 O.co2 383  ASP383     -0.2456
     13  OD2      -21.2620   74.0080   42.7500 O.co2 383  ASP383     -0.2456
     14  N        -21.2140   78.5160   40.5600 N.am  384  LEU384     -0.1977
     15  CA       -20.9720   79.6200   41.4890 C.3   384  LEU384      0.1596
     16  C        -21.8090   80.8440   41.1300 C.2   384  LEU384      0.2287
     17  O        -21.4030   81.9770   41.4060 O.2   384  LEU384     -0.2864
     18  CB       -19.4880   79.9900   41.4340 C.3   384  LEU384      0.0297
     19  CG       -18.5010   79.6500   42.5420 C.3   384  LEU384      0.0022
     20  CD1      -19.0730   78.6710   43.5610 C.3   384  LEU384      0.0001
     21  CD2      -17.2390   79.1260   41.8780 C.3   384  LEU384      0.0001
     22  N        -19.3420   72.0780   38.1070 N.3   412  VAL412     -0.1245
     23  CA       -17.9640   72.3210   38.5360 C.3   412  VAL412      0.1561
     24  C        -16.9840   71.7610   37.5010 C.2   412  VAL412      0.2260
     25  O        -16.3050   70.7570   37.7350 O.2   412  VAL412     -0.2867
     26  CB       -17.6770   71.6790   39.9140 C.3   412  VAL412      0.0252
     27  CG1      -16.3550   72.1760   40.4330 C.3   412  VAL412      0.0019
     28  CG2      -18.7840   72.0120   40.8960 C.3   412  VAL412      0.0019
     29  N        -14.5200   73.9190   35.2010 N.3   414  GLU414     -0.1245
     30  CA       -13.9320   75.1380   34.6600 C.3   414  GLU414      0.1567
     31  C        -13.2650   74.9760   33.2950 C.2   414  GLU414      0.2260
     32  O        -13.4880   75.7760   32.3810 O.2   414  GLU414     -0.2867
     33  CB       -12.9140   75.7210   35.6540 C.3   414  GLU414      0.0388
     34  CG       -13.5170   76.1160   36.9970 C.3   414  GLU414      0.1160
     35  CD       -13.6160   74.9610   37.9840 C.2   414  GLU414      0.3649
     36  OE1      -13.1440   73.8570   37.6590 O.co2 414  GLU414     -0.2457
     37  OE2      -14.1530   75.1660   39.0970 O.co2 414  GLU414     -0.2457
     38  N        -16.0580   81.9060   37.3520 N.3   437  THR437     -0.1203
     39  CA       -15.6410   81.1260   38.4940 C.3   437  THR437      0.1994
     40  C        -14.8090   82.0590   39.3750 C.2   437  THR437      0.2617
     41  O        -14.6960   83.2560   39.0700 O.2   437  THR437     -0.2717
     42  CB       -14.8200   79.9040   38.0670 C.3   437  THR437      0.1784
     43  OG1      -14.4590   79.1570   39.2200 O.3   437  THR437     -0.2211
     44  CG2      -13.5850   80.3000   37.3520 C.3   437  THR437      0.0376
     45  N        -14.2740   81.5480   40.4810 N.am  438  PHE438     -0.1975
     46  CA       -13.4240   82.3860   41.3170 C.3   438  PHE438      0.1639
     47  C        -12.1190   82.5760   40.5290 C.2   438  PHE438      0.2290
     48  O        -11.6300   81.6370   39.8900 O.2   438  PHE438     -0.2864
     49  CB       -13.1050   81.7250   42.6440 C.3   438  PHE438      0.0560
     50  CG       -14.2650   81.6650   43.5930 C.ar  438  PHE438     -0.0200
     51  CD1      -15.2770   82.6160   43.5440 C.ar  438  PHE438     -0.0042
     52  CD2      -14.3300   80.6630   44.5610 C.ar  438  PHE438     -0.0042
     53  CE1      -16.3290   82.5740   44.4340 C.ar  438  PHE438     -0.0003
     54  CE2      -15.3840   80.6110   45.4610 C.ar  438  PHE438     -0.0003
     55  CZ       -16.3870   81.5660   45.4010 C.ar  438  PHE438     -0.0000
     56  N         -9.3570   79.9370   40.3080 N.3   441  PHE441     -0.1241
     57  CA        -9.4940   78.7090   39.5530 C.3   441  PHE441      0.1605
     58  C         -9.3040   78.8150   38.0590 C.2   441  PHE441      0.2264
     59  O         -9.5920   77.8780   37.3130 O.2   441  PHE441     -0.2867
     60  CB       -10.7990   78.0130   39.9430 C.3   441  PHE441      0.0534
     61  CG       -10.7990   77.5800   41.3810 C.ar  441  PHE441     -0.0203
     62  CD1       -9.7160   76.8510   41.8860 C.ar  441  PHE441     -0.0042
     63  CD2      -11.8130   77.9600   42.2480 C.ar  441  PHE441     -0.0042
     64  CE1       -9.6470   76.5170   43.2410 C.ar  441  PHE441     -0.0003
     65  CE2      -11.7530   77.6330   43.6040 C.ar  441  PHE441     -0.0003
     66  CZ       -10.6700   76.9100   44.1070 C.ar  441  PHE441     -0.0000
     67  N         -7.3250   76.0420   36.6910 N.3   444  TYR444     -0.1241
     68  CA        -7.9560   74.8090   36.2050 C.3   444  TYR444      0.1605
     69  C         -8.2650   74.8450   34.7280 C.2   444  TYR444      0.2264
     70  O         -8.1830   73.8300   34.0420 O.2   444  TYR444     -0.2867
     71  CB        -9.2820   74.5250   36.9500 C.3   444  TYR444      0.0534
     72  CG        -9.1220   73.7490   38.2420 C.ar  444  TYR444     -0.0201
     73  CD1       -8.2990   74.2250   39.2630 C.ar  444  TYR444     -0.0009
     74  CD2       -9.7580   72.5270   38.4300 C.ar  444  TYR444     -0.0009
     75  CE1       -8.1120   73.4950   40.4490 C.ar  444  TYR444      0.0417
     76  CE2       -9.5720   71.7830   39.6100 C.ar  444  TYR444      0.0417
     77  CZ        -8.7480   72.2790   40.6170 C.ar  444  TYR444      0.1957
     78  OH        -8.5690   71.6030   41.8010 O.3   444  TYR444     -0.2866
     79  N         -7.6780   79.5460   48.0940 N.3   477  HIS477     -0.1241
     80  CA        -8.6290   80.2940   47.2830 C.3   477  HIS477      0.1621
     81  C         -8.1640   81.6910   46.8890 C.2   477  HIS477      0.2264
     82  O         -8.7470   82.3070   45.9970 O.2   477  HIS477     -0.2867
     83  CB        -9.9700   80.3990   48.0280 C.3   477  HIS477      0.0745
     84  CG       -10.7610   79.1290   48.0210 C.ar  477  HIS477      0.0817
     85  ND1      -10.2490   77.9330   48.4700 N.ar  477  HIS477     -0.2268
     86  CD2      -12.0140   78.8580   47.5820 C.ar  477  HIS477      0.1154
     87  CE1      -11.1490   76.9780   48.3060 C.ar  477  HIS477      0.1986
     88  NE2      -12.2290   77.5130   47.7700 N.ar  477  HIS477     -0.2212
@<TRIPOS>BOND
     1    32    31    2
     2    31    30    1
     3    70    69    2
     4    30    29    1
     5    30    33    1
     6    69    68    1
     7    33    34    1
     8    68    67    1
     9    68    71    1
    10     1     2    1
    11     5     2    1
    12    71    72    1
    13    34    35    1
    14     2     3    1
    15    59    58    2
    16    38    39    1
    17    44    42    1
    18    24    25    2
    19    24    23    1
    20    36    35   ar
    21    35    37   ar
    22    58    57    1
    23    42    39    1
    24    42    43    1
    25    22    23    1
    26    72    74   ar
    27    72    73   ar
    28    74    76   ar
    29     3     6   am
    30     3     4    2
    31    39    40    1
    32    23    26    1
    33     6     7    1
    34    41    40    2
    35    73    75   ar
    36    40    45   am
    37    57    60    1
    38    57    56    1
    39    76    77   ar
    40    48    47    2
    41    26    27    1
    42    26    28    1
    43    60    61    1
    44     7    10    1
    45     7     8    1
    46    75    77   ar
    47    45    46    1
    48    47    46    1
    49    10    11    1
    50    14     8   am
    51    14    15    1
    52    77    78    1
    53     8     9    2
    54    16    17    2
    55    16    15    1
    56    46    49    1
    57    61    62   ar
    58    61    63   ar
    59    18    15    1
    60    18    19    1
    61    12    11   ar
    62    11    13   ar
    63    21    19    1
    64    62    64   ar
    65    63    65   ar
    66    19    20    1
    67    49    50    1
    68    64    66   ar
    69    51    50   ar
    70    51    53   ar
    71    50    52   ar
    72    65    66   ar
    73    53    55   ar
    74    52    54   ar
    75    55    54   ar
    76    82    81    2
    77    81    80    1
    78    80    83    1
    79    80    79    1
    80    86    88   ar
    81    86    84   ar
    82    88    87   ar
    83    84    83    1
    84    84    85   ar
    85    87    85   ar
