@<TRIPOS>MOLECULE
tmp/1iucA02.pdb
 125 119 0 0 0
SMALL
GASTEIGER

@<TRIPOS>ATOM
      1  N         21.9410   28.9640   34.9690 N.3   173  ILE173     -0.1245
      2  CA        20.9290   30.0260   35.0250 C.3   173  ILE173      0.1561
      3  C         19.6790   29.6820   34.2240 C.2   173  ILE173      0.2260
      4  O         18.6390   30.3330   34.3550 O.2   173  ILE173     -0.2867
      5  CB        21.4960   31.3670   34.5200 C.3   173  ILE173      0.0252
      6  CG1       21.8090   31.2800   33.0210 C.3   173  ILE173      0.0019
      7  CG2       22.7640   31.7190   35.3080 C.3   173  ILE173      0.0019
      8  CD1       22.2140   32.6090   32.4210 C.3   173  ILE173      0.0001
      9  N         22.1690   26.7940   29.9700 N.3   177  ARG177     -0.1245
     10  CA        22.8360   28.1000   30.0540 C.3   177  ARG177      0.1563
     11  C         23.6880   28.0990   31.3250 C.2   177  ARG177      0.2260
     12  O         23.1670   28.1110   32.4460 O.2   177  ARG177     -0.2867
     13  CB        21.8210   29.2440   30.1000 C.3   177  ARG177      0.0307
     14  CG        20.9220   29.3240   28.8830 C.3   177  ARG177      0.0489
     15  CD        20.0530   30.5740   28.9510 C.3   177  ARG177      0.2205
     16  NE        20.8490   31.7870   28.7830 N.pl3 177  ARG177     -0.0865
     17  CZ        20.4320   33.0070   29.1080 C.cat 177  ARG177      0.5346
     18  NH1       19.2220   33.1810   29.6250 N.pl3 177  ARG177      0.1354
     19  NH2       21.2240   34.0560   28.9170 N.pl3 177  ARG177      0.1354
     20  N         27.0680   29.5570   33.7240 N.3   179  ARG179     -0.1245
     21  CA        27.8890   30.6950   34.1210 C.3   179  ARG179      0.1563
     22  C         28.9030   30.1820   35.1430 C.2   179  ARG179      0.2260
     23  O         28.5270   29.5680   36.1380 O.2   179  ARG179     -0.2867
     24  CB        27.0160   31.7900   34.7460 C.3   179  ARG179      0.0307
     25  CG        26.0470   32.4360   33.7580 C.3   179  ARG179      0.0489
     26  CD        26.8130   33.2090   32.6800 C.3   179  ARG179      0.2205
     27  NE        25.9240   33.8510   31.7140 N.pl3 179  ARG179     -0.0865
     28  CZ        25.3110   33.2220   30.7140 C.cat 179  ARG179      0.5346
     29  NH1       25.4840   31.9170   30.5310 N.pl3 179  ARG179      0.1354
     30  NH2       24.5190   33.9040   29.8920 N.pl3 179  ARG179      0.1354
     31  N         33.9430   35.8930   34.5200 N.3   191  GLU191     -0.1245
     32  CA        32.8040   35.0470   34.2200 C.3   191  GLU191      0.1567
     33  C         32.9180   34.4040   32.8430 C.2   191  GLU191      0.2260
     34  O         33.2780   35.0660   31.8690 O.2   191  GLU191     -0.2867
     35  CB        31.5390   35.9030   34.2900 C.3   191  GLU191      0.0388
     36  CG        30.2800   35.2490   33.7830 C.3   191  GLU191      0.1160
     37  CD        29.1620   36.2580   33.6270 C.2   191  GLU191      0.3649
     38  OE1       29.3920   37.2710   32.9300 O.co2 191  GLU191     -0.2457
     39  OE2       28.0640   36.0480   34.1920 O.co2 191  GLU191     -0.2457
     40  N         30.8070   32.0590   29.9610 N.3   193  CYS193     -0.1235
     41  CA        29.4340   31.6810   29.6360 C.3   193  CYS193      0.1677
     42  C         29.2310   30.6650   28.5260 C.2   193  CYS193      0.2270
     43  O         30.0280   30.5560   27.5980 O.2   193  CYS193     -0.2867
     44  CB        28.6320   32.9340   29.2630 C.3   193  CYS193      0.0956
     45  SG        29.0200   34.4180   30.2210 S.3   193  CYS193     -0.0801
     46  N         25.7230   29.6420   26.4450 N.3   195  ASP195     -0.1239
     47  CA        24.2880   29.8460   26.2890 C.3   195  ASP195      0.1674
     48  C         23.6160   28.7950   25.4180 C.2   195  ASP195      0.2266
     49  O         22.4390   28.4700   25.6200 O.2   195  ASP195     -0.2867
     50  CB        24.0160   31.2480   25.7380 C.3   195  ASP195      0.1410
     51  CG        23.9520   32.2980   26.8320 C.2   195  ASP195      0.3668
     52  OD1       24.1670   33.4900   26.5340 O.co2 195  ASP195     -0.2456
     53  OD2       23.6660   31.9310   27.9930 O.co2 195  ASP195     -0.2456
     54  N         32.1380   31.6950   25.9790 N.3   200  TYR200     -0.1241
     55  CA        32.5890   33.0560   25.7180 C.3   200  TYR200      0.1605
     56  C         32.7120   33.8330   27.0260 C.2   200  TYR200      0.2264
     57  O         31.9870   33.5660   27.9860 O.2   200  TYR200     -0.2867
     58  CB        31.6200   33.7580   24.7510 C.3   200  TYR200      0.0534
     59  CG        30.2310   34.0310   25.2960 C.ar  200  TYR200     -0.0201
     60  CD1       29.9650   35.1840   26.0380 C.ar  200  TYR200     -0.0009
     61  CD2       29.1850   33.1340   25.0790 C.ar  200  TYR200     -0.0009
     62  CE1       28.6910   35.4390   26.5520 C.ar  200  TYR200      0.0417
     63  CE2       27.9060   33.3790   25.5900 C.ar  200  TYR200      0.0417
     64  CZ        27.6700   34.5320   26.3260 C.ar  200  TYR200      0.1957
     65  OH        26.4180   34.7660   26.8560 O.3   200  TYR200     -0.2866
     66  N         32.1550   36.3900   29.7710 N.3   202  GLY202     -0.1210
     67  CA        30.9830   37.1580   30.1550 C.3   202  GLY202      0.1956
     68  C         31.3320   38.5960   30.4690 C.2   202  GLY202      0.2612
     69  O         32.5030   38.9520   30.5330 O.2   202  GLY202     -0.2717
     70  N         30.3150   39.4250   30.6770 N.am  203  GLY203     -0.1942
     71  CA        30.5550   40.8260   30.9700 C.3   203  GLY203      0.2014
     72  C         30.8990   41.1480   32.4130 C.2   203  GLY203      0.2638
     73  O         31.4820   42.2000   32.6850 O.2   203  GLY203     -0.2714
     74  N         30.5470   40.2590   33.3420 N.am  204  PHE204     -0.1973
     75  CA        30.8360   40.5010   34.7520 C.3   204  PHE204      0.1639
     76  C         32.3220   40.5520   35.0720 C.2   204  PHE204      0.2290
     77  O         33.1250   39.7760   34.5410 O.2   204  PHE204     -0.2864
     78  CB        30.2080   39.4370   35.6440 C.3   204  PHE204      0.0560
     79  CG        30.5080   39.6420   37.1020 C.ar  204  PHE204     -0.0200
     80  CD1       30.0210   40.7630   37.7710 C.ar  204  PHE204     -0.0042
     81  CD2       31.3060   38.7370   37.8010 C.ar  204  PHE204     -0.0042
     82  CE1       30.3230   40.9800   39.1120 C.ar  204  PHE204     -0.0003
     83  CE2       31.6130   38.9440   39.1420 C.ar  204  PHE204     -0.0003
     84  CZ        31.1220   40.0650   39.7990 C.ar  204  PHE204     -0.0000
     85  N         17.3200   35.9670   34.1390 N.3   223  PRO223     -0.2116
     86  CA        17.2230   35.3190   35.4480 C.3   223  PRO223      0.1372
     87  C         18.0380   36.1530   36.4380 C.2   223  PRO223      0.2244
     88  O         18.7420   37.0830   36.0430 O.2   223  PRO223     -0.2868
     89  CB        17.8630   33.9680   35.1870 C.3   223  PRO223      0.0268
     90  CG        19.0530   34.3730   34.3390 C.3   223  PRO223      0.0207
     91  CD        18.4580   35.4090   33.3740 C.3   223  PRO223      0.0892
     92  N         21.0320   36.3510   39.3330 N.3   225  ILE225     -0.1245
     93  CA        22.2580   35.6680   39.7050 C.3   225  ILE225      0.1561
     94  C         22.8830   36.4130   40.8790 C.2   225  ILE225      0.2260
     95  O         22.8410   37.6500   40.9240 O.2   225  ILE225     -0.2867
     96  CB        23.2920   35.7010   38.5510 C.3   225  ILE225      0.0252
     97  CG1       22.6750   35.1700   37.2560 C.3   225  ILE225      0.0019
     98  CG2       24.5220   34.8790   38.9300 C.3   225  ILE225      0.0019
     99  CD1       23.5110   35.4970   36.0370 C.3   225  ILE225      0.0001
    100  N         22.8950   40.1950   39.9770 N.3   241  TYR241     -0.1241
    101  CA        22.4500   40.4190   38.6080 C.3   241  TYR241      0.1605
    102  C         20.9370   40.2460   38.6080 C.2   241  TYR241      0.2264
    103  O         20.4170   39.2350   39.1030 O.2   241  TYR241     -0.2867
    104  CB        23.0780   39.3920   37.6710 C.3   241  TYR241      0.0534
    105  CG        22.5980   39.4780   36.2400 C.ar  241  TYR241     -0.0201
    106  CD1       23.2890   40.2420   35.2990 C.ar  241  TYR241     -0.0009
    107  CD2       21.4600   38.7830   35.8210 C.ar  241  TYR241     -0.0009
    108  CE1       22.8690   40.3090   33.9760 C.ar  241  TYR241      0.0417
    109  CE2       21.0250   38.8470   34.4980 C.ar  241  TYR241      0.0417
    110  CZ        21.7370   39.6090   33.5830 C.ar  241  TYR241      0.1957
    111  OH        21.3300   39.6720   32.2710 O.3   241  TYR241     -0.2866
    112  N         24.2560   43.9220   36.1640 N.3   245  TRP245     -0.1241
    113  CA        24.9830   43.8150   37.4300 C.3   245  TRP245      0.1605
    114  C         25.0260   45.0970   38.2460 C.2   245  TRP245      0.2264
    115  O         25.2070   46.1810   37.6950 O.2   245  TRP245     -0.2867
    116  CB        26.4240   43.3570   37.1780 C.3   245  TRP245      0.0550
    117  CG        26.5410   41.9790   36.6080 C.ar  245  TRP245      0.0003
    118  CD1       26.7120   41.6400   35.2910 C.ar  245  TRP245      0.0946
    119  CD2       26.5050   40.7450   37.3400 C.ar  245  TRP245      0.0152
    120  NE1       26.7870   40.2690   35.1610 N.ar  245  TRP245     -0.2442
    121  CE2       26.6620   39.6960   36.4010 C.ar  245  TRP245      0.0810
    122  CE3       26.3540   40.4240   38.6980 C.ar  245  TRP245      0.0012
    123  CZ2       26.6730   38.3420   36.7790 C.ar  245  TRP245      0.0191
    124  CZ3       26.3640   39.0800   39.0760 C.ar  245  TRP245      0.0001
    125  CH2       26.5230   38.0550   38.1140 C.ar  245  TRP245      0.0015
@<TRIPOS>BOND
     1    58    59    1
     2    58    55    1
     3    61    59   ar
     4    61    63   ar
     5    59    60   ar
     6    48    49    2
     7    48    47    1
     8    63    64   ar
     9    55    54    1
    10    55    56    1
    11    50    47    1
    12    50    51    1
    13    60    62   ar
    14    47    46    1
    15    64    62   ar
    16    64    65    1
    17    52    51   ar
    18    51    53   ar
    19    56    57    2
    20    43    42    2
    21    42    41    1
    22    16    15    1
    23    16    17    2
    24    14    15    1
    25    14    13    1
    26    19    17    1
    27    17    18    1
    28    44    41    1
    29    44    45    1
    30    41    40    1
    31    66    67    1
    32    30    28    1
    33     9    10    1
    34    10    13    1
    35    10    11    1
    36    67    68    1
    37    68    69    2
    38    68    70   am
    39    29    28    1
    40    70    71    1
    41    28    27    2
    42    71    72    1
    43    11    12    2
    44    27    26    1
    45    34    33    2
    46   111   110    1
    47    72    73    2
    48    72    74   am
    49     8     6    1
    50    26    25    1
    51    33    32    1
    52    38    37   ar
    53     6     5    1
    54    74    75    1
    55    91    85    1
    56    91    90    1
    57   110   108   ar
    58   110   109   ar
    59    37    36    1
    60    37    39   ar
    61    20    21    1
    62    25    24    1
    63    36    35    1
    64   108   106   ar
    65    21    24    1
    66    21    22    1
    67    85    86    1
    68    32    35    1
    69    32    31    1
    70     3     4    2
    71     3     2    1
    72    90    89    1
    73   109   107   ar
    74     5     2    1
    75     5     7    1
    76    77    76    2
    77    75    76    1
    78    75    78    1
    79     1     2    1
    80    22    23    2
    81   120   118   ar
    82   120   121   ar
    83    89    86    1
    84   118   117   ar
    85   106   105   ar
    86    86    87    1
    87    78    79    1
    88   107   105   ar
    89    99    97    1
    90    88    87    2
    91   112   113    1
    92   105   104    1
    93   121   123   ar
    94   121   119   ar
    95   117   116    1
    96   117   119   ar
    97   123   125   ar
    98    79    80   ar
    99    79    81   ar
   100   116   113    1
   101    97    96    1
   102   119   122   ar
   103   113   114    1
   104   104   101    1
   105   115   114    2
   106    80    82   ar
   107    81    83   ar
   108   125   124   ar
   109    96    98    1
   110    96    93    1
   111   102   101    1
   112   102   103    2
   113   101   100    1
   114   122   124   ar
   115    82    84   ar
   116    83    84   ar
   117    92    93    1
   118    93    94    1
   119    94    95    2
