@<TRIPOS>MOLECULE
tmp/1iucA00.pdb
 105 102 0 0 0
SMALL
GASTEIGER

@<TRIPOS>ATOM
      1  N         18.7370   16.8690   42.4480 N.3    68  TRP68      -0.1241
      2  CA        17.5720   17.0070   41.5850 C.3    68  TRP68       0.1605
      3  C         16.6060   15.9190   42.0190 C.2    68  TRP68       0.2264
      4  O         16.9880   15.0100   42.7630 O.2    68  TRP68      -0.2867
      5  CB        17.9630   16.8610   40.1070 C.3    68  TRP68       0.0550
      6  CG        18.3530   15.4730   39.6810 C.ar   68  TRP68       0.0003
      7  CD1       17.5300   14.5100   39.1630 C.ar   68  TRP68       0.0946
      8  CD2       19.6650   14.8940   39.7320 C.ar   68  TRP68       0.0152
      9  NE1       18.2480   13.3690   38.8850 N.ar   68  TRP68      -0.2442
     10  CE2       19.5600   13.5750   39.2270 C.ar   68  TRP68       0.0810
     11  CE3       20.9180   15.3590   40.1580 C.ar   68  TRP68       0.0012
     12  CZ2       20.6670   12.7130   39.1360 C.ar   68  TRP68       0.0191
     13  CZ3       22.0200   14.5020   40.0680 C.ar   68  TRP68       0.0001
     14  CH2       21.8830   13.1930   39.5600 C.ar   68  TRP68       0.0015
     15  N         24.6170   14.1870   44.4360 N.3    77  ARG77      -0.1245
     16  CA        25.9400   13.7660   43.9930 C.3    77  ARG77       0.1563
     17  C         26.9380   14.6730   44.7100 C.2    77  ARG77       0.2260
     18  O         26.8000   15.8970   44.6990 O.2    77  ARG77      -0.2867
     19  CB        26.0940   13.9220   42.4800 C.3    77  ARG77       0.0307
     20  CG        25.1230   13.0790   41.6550 C.3    77  ARG77       0.0489
     21  CD        25.4100   11.5820   41.7830 C.3    77  ARG77       0.2205
     22  NE        24.4980   10.7860   40.9580 N.pl3  77  ARG77      -0.0865
     23  CZ        23.2540   10.4610   41.3050 C.cat  77  ARG77       0.5346
     24  NH1       22.7550   10.8550   42.4730 N.pl3  77  ARG77       0.1354
     25  NH2       22.5000    9.7420   40.4780 N.pl3  77  ARG77       0.1354
     26  N         33.2400   10.4410   43.3840 N.3    89  GLU89      -0.1245
     27  CA        31.8470   10.8380   43.5320 C.3    89  GLU89       0.1567
     28  C         31.0240    9.9460   44.4370 C.2    89  GLU89       0.2260
     29  O         31.0700    8.7250   44.3170 O.2    89  GLU89      -0.2867
     30  CB        31.1960   10.8620   42.1440 C.3    89  GLU89       0.0388
     31  CG        29.6790   10.9890   42.1250 C.3    89  GLU89       0.1160
     32  CD        29.0940   10.6790   40.7400 C.2    89  GLU89       0.3649
     33  OE1       29.3070    9.5520   40.2430 O.co2  89  GLU89      -0.2457
     34  OE2       28.4300   11.5570   40.1460 O.co2  89  GLU89      -0.2457
     35  N         27.1770    8.9930   45.7470 N.3    91  VAL91      -0.1245
     36  CA        25.8250    9.0550   45.2250 C.3    91  VAL91       0.1561
     37  C         24.7480    8.7300   46.2330 C.2    91  VAL91       0.2260
     38  O         24.8490    7.7410   46.9550 O.2    91  VAL91      -0.2867
     39  CB        25.6590    8.0350   44.0460 C.3    91  VAL91       0.0252
     40  CG1       24.2220    8.0140   43.5590 C.3    91  VAL91       0.0019
     41  CG2       26.6150    8.3760   42.9050 C.3    91  VAL91       0.0019
     42  N         25.8700    5.5240   48.0720 N.3    98  ILE98      -0.1245
     43  CA        26.7990    4.5890   47.4520 C.3    98  ILE98       0.1561
     44  C         27.8960    5.3700   46.7430 C.2    98  ILE98       0.2260
     45  O         27.9430    6.5990   46.8010 O.2    98  ILE98      -0.2867
     46  CB        26.0950    3.6790   46.4230 C.3    98  ILE98       0.0252
     47  CG1       25.4210    4.5340   45.3530 C.3    98  ILE98       0.0019
     48  CG2       25.0680    2.7990   47.1240 C.3    98  ILE98       0.0019
     49  CD1       24.8050    3.7210   44.2320 C.3    98  ILE98       0.0001
     50  N         29.8070    6.5560   43.2860 N.3   100  GLY100     -0.1210
     51  CA        29.5260    6.7810   41.8800 C.3   100  GLY100      0.1956
     52  C         30.5800    6.2140   40.9490 C.2   100  GLY100      0.2611
     53  O         31.6460    5.7690   41.3810 O.2   100  GLY100     -0.2717
     54  N         30.2800    6.2510   39.6580 N.am  101  GLN101     -0.1979
     55  CA        31.1720    5.7220   38.6400 C.3   101  GLN101      0.1601
     56  C         32.3140    6.6390   38.2300 C.2   101  GLN101      0.2287
     57  O         33.2880    6.1810   37.6280 O.2   101  GLN101     -0.2864
     58  CB        30.3550    5.3400   37.4030 C.3   101  GLN101      0.0394
     59  CG        29.2430    4.3560   37.7200 C.3   101  GLN101      0.0908
     60  CD        29.7620    3.0670   38.3610 C.2   101  GLN101      0.2608
     61  OE1       30.3700    2.2280   37.6890 O.2   101  GLN101     -0.2717
     62  NE2       29.5330    2.9130   39.6650 N.am  101  GLN101     -0.0878
     63  N         19.5160   13.8000   34.2730 N.3   128  PRO128     -0.2116
     64  CA        20.2280   15.0480   34.5490 C.3   128  PRO128      0.1372
     65  C         21.4020   15.2990   33.6220 C.2   128  PRO128      0.2244
     66  O         21.8750   14.3980   32.9350 O.2   128  PRO128     -0.2868
     67  CB        20.6840   14.8590   35.9870 C.3   128  PRO128      0.0268
     68  CG        21.0290   13.4020   36.0050 C.3   128  PRO128      0.0207
     69  CD        19.8480   12.7750   35.2790 C.3   128  PRO128      0.0892
     70  N         25.0230   16.8550   34.1850 N.3   130  ILE130     -0.1245
     71  CA        25.9510   17.3080   35.2100 C.3   130  ILE130      0.1561
     72  C         27.2740   17.7930   34.6180 C.2   130  ILE130      0.2260
     73  O         27.7800   17.2340   33.6420 O.2   130  ILE130     -0.2867
     74  CB        26.2620   16.1720   36.2140 C.3   130  ILE130      0.0252
     75  CG1       24.9650   15.5840   36.7660 C.3   130  ILE130      0.0019
     76  CG2       27.1070   16.7050   37.3730 C.3   130  ILE130      0.0019
     77  CD1       25.1770   14.3110   37.5680 C.3   130  ILE130      0.0001
     78  N         28.6310   14.8210   32.1510 N.3   149  TRP149     -0.1241
     79  CA        27.8590   13.6000   32.2630 C.3   149  TRP149      0.1605
     80  C         26.5190   13.7920   31.5700 C.2   149  TRP149      0.2264
     81  O         25.6960   14.6060   31.9920 O.2   149  TRP149     -0.2867
     82  CB        27.5820   13.1820   33.6980 C.3   149  TRP149      0.0550
     83  CG        27.0860   11.7620   33.7380 C.ar  149  TRP149      0.0003
     84  CD1       27.8520   10.6250   33.8190 C.ar  149  TRP149      0.0946
     85  CD2       25.7290   11.3180   33.6250 C.ar  149  TRP149      0.0152
     86  NE1       27.0530    9.5060   33.7660 N.ar  149  TRP149     -0.2442
     87  CE2       25.7460    9.9020   33.6480 C.ar  149  TRP149      0.0810
     88  CE3       24.4980   11.9770   33.5070 C.ar  149  TRP149      0.0012
     89  CZ2       24.5820    9.1380   33.5590 C.ar  149  TRP149      0.0191
     90  CZ3       23.3390   11.2160   33.4190 C.ar  149  TRP149      0.0001
     91  CH2       23.3900    9.8090   33.4460 C.ar  149  TRP149      0.0015
     92  N         30.3670    9.6460   31.4510 N.3   153  TRP153     -0.1241
     93  CA        31.3270   10.7130   31.7220 C.3   153  TRP153      0.1605
     94  C         32.2980   10.9120   30.5670 C.2   153  TRP153      0.2264
     95  O         32.8450    9.9470   30.0370 O.2   153  TRP153     -0.2867
     96  CB        32.1340   10.4070   32.9990 C.3   153  TRP153      0.0550
     97  CG        31.3550   10.5530   34.2730 C.ar  153  TRP153      0.0003
     98  CD1       30.8540    9.5510   35.0540 C.ar  153  TRP153      0.0946
     99  CD2       30.9590   11.7810   34.8920 C.ar  153  TRP153      0.0152
    100  NE1       30.1620   10.0810   36.1260 N.ar  153  TRP153     -0.2442
    101  CE2       30.2140   11.4480   36.0480 C.ar  153  TRP153      0.0810
    102  CE3       31.1580   13.1350   34.5800 C.ar  153  TRP153      0.0012
    103  CZ2       29.6680   12.4190   36.8920 C.ar  153  TRP153      0.0191
    104  CZ3       30.6140   14.0990   35.4180 C.ar  153  TRP153      0.0001
    105  CH2       29.8770   13.7330   36.5620 C.ar  153  TRP153      0.0015
@<TRIPOS>BOND
     1    95    94    2
     2    94    93    1
     3    92    93    1
     4    80    81    2
     5    80    79    1
     6    93    96    1
     7    78    79    1
     8    79    82    1
     9    66    65    2
    10    96    97    1
    11    90    91   ar
    12    90    88   ar
    13    91    89   ar
    14    88    85   ar
    15    89    87   ar
    16    65    64    1
    17    85    87   ar
    18    85    83   ar
    19    73    72    2
    20    87    86   ar
    21    82    83    1
    22    83    84   ar
    23    86    84   ar
    24    70    71    1
    25    97    99   ar
    26    97    98   ar
    27    63    64    1
    28    63    69    1
    29    64    67    1
    30   102    99   ar
    31   102   104   ar
    32    72    71    1
    33    99   101   ar
    34    98   100   ar
    35    71    74    1
    36    69    68    1
    37   104   105   ar
    38    67    68    1
    39   101   100   ar
    40   101   103   ar
    41    74    75    1
    42    74    76    1
    43   105   103   ar
    44    75    77    1
    45    58    59    1
    46    58    55    1
    47    57    56    2
    48    61    60    2
    49    59    60    1
    50    56    55    1
    51    60    62   am
    52    55    54    1
    53     9     7   ar
    54     9    10   ar
    55    12    10   ar
    56    12    14   ar
    57     7     6   ar
    58    10     8   ar
    59    14    13   ar
    60    54    52   am
    61     6     8   ar
    62     6     5    1
    63     8    11   ar
    64    13    11   ar
    65     5     2    1
    66    34    32   ar
    67    33    32   ar
    68    25    23    1
    69    32    31    1
    70    52    53    2
    71    52    51    1
    72    22    23    2
    73    22    21    1
    74    23    24    1
    75     2     3    1
    76     2     1    1
    77    20    21    1
    78    20    19    1
    79    51    50    1
    80     3     4    2
    81    31    30    1
    82    30    27    1
    83    19    16    1
    84    41    39    1
    85    26    27    1
    86    27    28    1
    87    40    39    1
    88    16    15    1
    89    16    17    1
    90    39    36    1
    91    49    47    1
    92    29    28    2
    93    18    17    2
    94    36    35    1
    95    36    37    1
    96    47    46    1
    97    37    38    2
    98    46    48    1
    99    46    43    1
   100    44    45    2
   101    44    43    1
   102    43    42    1
