@<TRIPOS>MOLECULE
tmp/1iuvA01.pdb
 128 122 0 0 0
SMALL
GASTEIGER

@<TRIPOS>ATOM
      1  N         21.3590  100.6080   50.9630 N.3    44  ARG44      -0.1231
      2  CA        20.9750   99.2300   51.1830 C.3    44  ARG44       0.1694
      3  C         19.6360   98.7040   50.6610 C.2    44  ARG44       0.2592
      4  O         19.2960   98.9030   49.5020 O.2    44  ARG44      -0.2718
      5  CB        21.1870   98.8870   52.6540 C.3    44  ARG44       0.0321
      6  CG        22.5780   99.2520   53.1340 C.3    44  ARG44       0.0489
      7  CD        23.1410   98.2190   54.0550 C.3    44  ARG44       0.2205
      8  NE        24.3260   98.7290   54.7280 N.pl3  44  ARG44      -0.0865
      9  CZ        24.6650   98.4290   55.9800 C.cat  44  ARG44       0.5346
     10  NH1       23.9130   97.6050   56.7060 N.pl3  44  ARG44       0.1354
     11  NH2       25.7630   98.9560   56.5110 N.pl3  44  ARG44       0.1354
     12  N         18.9010   98.0030   51.5200 N.am   45  ALA45      -0.1966
     13  CA        17.6280   97.3670   51.1880 C.3    45  ALA45       0.1728
     14  C         16.5490   98.1570   50.4950 C.2    45  ALA45       0.2617
     15  O         16.3120   99.3160   50.7840 O.2    45  ALA45      -0.2715
     16  CB        17.0480   96.7240   52.4210 C.3    45  ALA45       0.0334
     17  N         15.8460   97.4670   49.6210 N.am   46  GLY46      -0.1940
     18  CA        14.7480   98.0760   48.9090 C.3    46  GLY46       0.2014
     19  C         13.5240   97.1820   49.0210 C.2    46  GLY46       0.2638
     20  O         12.4140   97.6630   48.9800 O.2    46  GLY46      -0.2714
     21  N         13.7150   95.8880   49.2510 N.am   47  VAL47      -0.1977
     22  CA        12.5950   94.9650   49.3190 C.3    47  VAL47       0.1596
     23  C         12.2720   94.4910   50.7330 C.2    47  VAL47       0.2287
     24  O         13.1610   94.0740   51.4700 O.2    47  VAL47      -0.2864
     25  CB        12.8630   93.7980   48.3540 C.3    47  VAL47       0.0276
     26  CG1       11.6890   92.8830   48.2630 C.3    47  VAL47       0.0022
     27  CG2       13.1660   94.3620   46.9560 C.3    47  VAL47       0.0022
     28  N         28.6100   93.2170   44.1690 N.3   185  TRP185     -0.1241
     29  CA        27.5720   93.9880   43.4850 C.3   185  TRP185      0.1605
     30  C         27.9190   95.4680   43.3730 C.2   185  TRP185      0.2264
     31  O         28.2300   96.1160   44.3730 O.2   185  TRP185     -0.2867
     32  CB        26.2290   93.8610   44.2050 C.3   185  TRP185      0.0550
     33  CG        25.5000   92.6030   43.8640 C.ar  185  TRP185      0.0003
     34  CD1       26.0010   91.5160   43.2100 C.ar  185  TRP185      0.0946
     35  CD2       24.1330   92.3020   44.1610 C.ar  185  TRP185      0.0152
     36  NE1       25.0330   90.5600   43.0780 N.ar  185  TRP185     -0.2442
     37  CE2       23.8770   91.0080   43.6590 C.ar  185  TRP185      0.0810
     38  CE3       23.0970   93.0020   44.8020 C.ar  185  TRP185      0.0012
     39  CZ2       22.6260   90.3940   43.7790 C.ar  185  TRP185      0.0191
     40  CZ3       21.8450   92.3940   44.9220 C.ar  185  TRP185      0.0001
     41  CH2       21.6220   91.0980   44.4130 C.ar  185  TRP185      0.0015
     42  N         10.7230   94.3780   39.5480 N.3   199  LEU199     -0.1245
     43  CA        12.1310   94.0270   39.5960 C.3   199  LEU199      0.1561
     44  C         12.5010   92.9740   38.5640 C.2   199  LEU199      0.2260
     45  O         11.7840   91.9900   38.3680 O.2   199  LEU199     -0.2867
     46  CB        12.4740   93.5120   40.9840 C.3   199  LEU199      0.0270
     47  CG        12.8800   94.5650   41.9940 C.3   199  LEU199      0.0019
     48  CD1       11.8110   95.6360   42.1760 C.3   199  LEU199      0.0001
     49  CD2       13.1420   93.8380   43.2670 C.3   199  LEU199      0.0001
     50  N         15.5130   90.4430   37.6750 N.3   201  TYR201     -0.1241
     51  CA        16.7550   89.7840   38.0440 C.3   201  TYR201      0.1605
     52  C         17.2630   89.2430   36.7260 C.2   201  TYR201      0.2264
     53  O         16.4950   88.6370   35.9900 O.2   201  TYR201     -0.2867
     54  CB        16.4480   88.6190   38.9970 C.3   201  TYR201      0.0534
     55  CG        16.1740   89.0390   40.4240 C.ar  201  TYR201     -0.0201
     56  CD1       14.9320   89.5070   40.8140 C.ar  201  TYR201     -0.0009
     57  CD2       17.1800   88.9960   41.3820 C.ar  201  TYR201     -0.0009
     58  CE1       14.7060   89.9310   42.1390 C.ar  201  TYR201      0.0417
     59  CE2       16.9620   89.4130   42.6910 C.ar  201  TYR201      0.0417
     60  CZ        15.7350   89.8780   43.0590 C.ar  201  TYR201      0.1957
     61  OH        15.5480   90.3220   44.3450 O.3   201  TYR201     -0.2866
     62  N         20.5670   93.4540   37.9200 N.3   210  LEU210     -0.1245
     63  CA        19.3000   93.5820   38.6310 C.3   210  LEU210      0.1561
     64  C         18.7710   94.9900   38.4500 C.2   210  LEU210      0.2260
     65  O         19.5030   95.9530   38.6510 O.2   210  LEU210     -0.2867
     66  CB        19.5060   93.3090   40.1280 C.3   210  LEU210      0.0270
     67  CG        18.4110   93.6180   41.1540 C.3   210  LEU210      0.0019
     68  CD1       17.1800   92.8460   40.8290 C.3   210  LEU210      0.0001
     69  CD2       18.8550   93.2500   42.5410 C.3   210  LEU210      0.0001
     70  N         16.1310   97.4210   39.9170 N.3   212  SER212     -0.1217
     71  CA        15.2240   97.6800   41.0190 C.3   212  SER212      0.1889
     72  C         14.8240   99.1570   41.0940 C.2   212  SER212      0.2288
     73  O         15.1610   99.9580   40.2080 O.2   212  SER212     -0.2866
     74  CB        15.8240   97.2230   42.3380 C.3   212  SER212      0.2089
     75  OG        14.8110   97.1730   43.3210 O.3   212  SER212     -0.2183
     76  N         13.1960  102.6370   43.9820 N.3   214  ARG214     -0.1245
     77  CA        12.9020  103.2210   45.2880 C.3   214  ARG214      0.1563
     78  C         11.5590  103.9650   45.2260 C.2   214  ARG214      0.2260
     79  O         10.8180  103.9920   46.2140 O.2   214  ARG214     -0.2867
     80  CB        14.0260  104.1340   45.7760 C.3   214  ARG214      0.0307
     81  CG        15.2630  103.3860   46.2670 C.3   214  ARG214      0.0489
     82  CD        14.9500  102.5270   47.4840 C.3   214  ARG214      0.2205
     83  NE        16.0980  101.7190   47.8750 N.pl3 214  ARG214     -0.0865
     84  CZ        16.5340  100.6680   47.1890 C.cat 214  ARG214      0.5346
     85  NH1       15.8980  100.2740   46.0950 N.pl3 214  ARG214      0.1354
     86  NH2       17.5900   99.9940   47.6110 N.pl3 214  ARG214      0.1354
     87  N         17.4050  102.0120   41.2180 N.3   220  ARG220     -0.1245
     88  CA        18.5500  101.3640   41.8360 C.3   220  ARG220      0.1563
     89  C         18.8470  100.1770   40.9330 C.2   220  ARG220      0.2260
     90  O         17.9760   99.3220   40.7010 O.2   220  ARG220     -0.2867
     91  CB        18.2210  100.9140   43.2710 C.3   220  ARG220      0.0307
     92  CG        19.3390  100.1870   44.0250 C.3   220  ARG220      0.0489
     93  CD        20.5560  101.0760   44.3160 C.3   220  ARG220      0.2205
     94  NE        21.3760  100.5840   45.4340 N.pl3 220  ARG220     -0.0865
     95  CZ        22.5360  101.1260   45.8230 C.cat 220  ARG220      0.5346
     96  NH1       23.0400  102.1690   45.1720 N.pl3 220  ARG220      0.1354
     97  NH2       23.2170  100.6150   46.8480 N.pl3 220  ARG220      0.1354
     98  N         21.9290   97.1900   39.7020 N.3   222  TYR222     -0.1241
     99  CA        23.1140   96.4950   40.1770 C.3   222  TYR222      0.1605
    100  C         23.7060   95.6400   39.0760 C.2   222  TYR222      0.2264
    101  O         22.9660   95.0910   38.2690 O.2   222  TYR222     -0.2867
    102  CB        22.7520   95.5170   41.2910 C.3   222  TYR222      0.0534
    103  CG        22.2300   96.1160   42.5500 C.ar  222  TYR222     -0.0201
    104  CD1       23.0990   96.5830   43.5280 C.ar  222  TYR222     -0.0009
    105  CD2       20.8640   96.1720   42.8000 C.ar  222  TYR222     -0.0009
    106  CE1       22.6220   97.0900   44.7420 C.ar  222  TYR222      0.0417
    107  CE2       20.3740   96.6830   44.0070 C.ar  222  TYR222      0.0417
    108  CZ        21.2590   97.1380   44.9720 C.ar  222  TYR222      0.1957
    109  OH        20.7920   97.6450   46.1560 O.3   222  TYR222     -0.2866
    110  N         22.6900   89.6120   49.1140 N.3   293  PRO293     -0.2102
    111  CA        21.5210   90.3830   48.6640 C.3   293  PRO293      0.1504
    112  C         20.5580   89.7470   47.6490 C.2   293  PRO293      0.2576
    113  O         19.4190   90.2140   47.5020 O.2   293  PRO293     -0.2718
    114  CB        22.1630   91.6230   48.0600 C.3   293  PRO293      0.0282
    115  CG        23.4260   91.7770   48.8480 C.3   293  PRO293      0.0208
    116  CD        23.9330   90.3860   48.9380 C.3   293  PRO293      0.0893
    117  N         21.0080   88.7080   46.9430 N.am  294  THR294     -0.1953
    118  CA        20.2140   88.0690   45.8920 C.3   294  THR294      0.1897
    119  C         18.7930   87.7790   46.2990 C.2   294  THR294      0.2313
    120  O         17.8780   88.0740   45.5340 O.2   294  THR294     -0.2863
    121  CB        20.8570   86.7620   45.3260 C.3   294  THR294      0.1794
    122  OG1       22.2810   86.8940   45.2650 O.3   294  THR294     -0.2208
    123  CG2       20.3800   86.5160   43.9110 C.3   294  THR294      0.0378
    124  N         17.1320   89.1570   49.0260 N.3   296  ALA296     -0.1245
    125  CA        16.5050   90.2770   49.7250 C.3   296  ALA296      0.1562
    126  C         16.0230   89.8630   51.0920 C.2   296  ALA296      0.2260
    127  O         14.9380   90.2650   51.4950 O.2   296  ALA296     -0.2867
    128  CB        15.3350   90.8130   48.9250 C.3   296  ALA296      0.0290
@<TRIPOS>BOND
     1    53    52    2
     2    52    51    1
     3    50    51    1
     4    62    63    1
     5    51    54    1
     6   101   100    2
     7    45    44    2
     8    64    63    1
     9    64    65    2
    10    44    43    1
    11    63    66    1
    12    54    55    1
    13   100    99    1
    14    42    43    1
    15    43    46    1
    16    98    99    1
    17    70    71    1
    18    66    67    1
    19    99   102    1
    20    73    72    2
    21    55    56   ar
    22    55    57   ar
    23    90    89    2
    24    56    58   ar
    25    68    67    1
    26    89    88    1
    27    46    47    1
    28    71    72    1
    29    71    74    1
    30    67    69    1
    31    87    88    1
    32   102   103    1
    33    57    59   ar
    34    88    91    1
    35    47    48    1
    36    47    49    1
    37    58    60   ar
    38    74    75    1
    39   103   105   ar
    40   103   104   ar
    41    59    60   ar
    42   105   107   ar
    43    60    61    1
    44    36    34   ar
    45    36    37   ar
    46    34    33   ar
    47    91    92    1
    48    30    29    1
    49    30    31    2
    50    29    28    1
    51    29    32    1
    52   104   106   ar
    53    37    39   ar
    54    37    35   ar
    55    39    41   ar
    56    33    35   ar
    57    33    32    1
    58   123   121    1
    59    76    77    1
    60   107   108   ar
    61    92    93    1
    62    35    38   ar
    63    93    94    1
    64    41    40   ar
    65   106   108   ar
    66    38    40   ar
    67   108   109    1
    68    96    95    1
    69    78    77    1
    70    78    79    2
    71   122   121    1
    72    77    80    1
    73   121   118    1
    74    94    95    2
    75   120   119    2
    76    80    81    1
    77    95    97    1
    78   118   119    1
    79   118   117    1
    80    85    84    1
    81    81    82    1
    82   117   112   am
    83    27    25    1
    84    84    86    1
    85    84    83    2
    86    82    83    1
    87   113   112    2
    88   112   111    1
    89   114   111    1
    90   114   115    1
    91    26    25    1
    92    25    22    1
    93   111   110    1
    94   115   116    1
    95    18    19    1
    96    18    17    1
    97   128   125    1
    98   116   110    1
    99    20    19    2
   100    19    21   am
   101   124   125    1
   102    21    22    1
   103    22    23    1
   104     4     3    2
   105    17    14   am
   106   125   126    1
   107    14    15    2
   108    14    13    1
   109     3     2    1
   110     3    12   am
   111    23    24    2
   112     1     2    1
   113   126   127    2
   114     2     5    1
   115    13    12    1
   116    13    16    1
   117     5     6    1
   118     6     7    1
   119     7     8    1
   120     8     9    2
   121     9    11    1
   122     9    10    1
