@<TRIPOS>MOLECULE
tmp/1iv2C00.pdb
 91 88 0 0 0
SMALL
GASTEIGER

@<TRIPOS>ATOM
      1  N        -10.7630   88.9250   56.9310 N.3    99  LEU99      -0.1231
      2  CA       -11.6930   89.7690   57.6580 C.3    99  LEU99       0.1693
      3  C        -12.9920   90.0240   56.8950 C.2    99  LEU99       0.2592
      4  O        -12.9700   90.3060   55.6910 O.2    99  LEU99      -0.2718
      5  CB       -11.0520   91.1170   58.0100 C.3    99  LEU99       0.0284
      6  CG       -10.9710   92.1220   56.8810 C.3    99  LEU99       0.0019
      7  CD1      -10.5340   93.4900   57.3780 C.3    99  LEU99       0.0001
      8  CD2       -9.9940   91.6150   55.8280 C.3    99  LEU99       0.0001
      9  N        -14.1030   89.9100   57.6060 N.am  100  ASP100     -0.1974
     10  CA       -15.4350   89.9460   56.9980 C.3   100  ASP100      0.1709
     11  C        -15.7490   91.3750   56.5490 C.2   100  ASP100      0.2293
     12  O        -16.3160   91.5960   55.4860 O.2   100  ASP100     -0.2864
     13  CB       -16.5150   89.4460   57.9370 C.3   100  ASP100      0.1436
     14  CG       -16.4010   88.0540   58.5030 C.2   100  ASP100      0.3671
     15  OD1      -15.4190   87.3170   58.3120 O.co2 100  ASP100     -0.2456
     16  OD2      -17.3480   87.6380   59.2210 O.co2 100  ASP100     -0.2456
     17  N        -14.0090   95.6420   57.1390 N.3   102  PRO102     -0.2102
     18  CA       -14.5820   96.1700   55.9180 C.3   102  PRO102      0.1504
     19  C        -14.0030   95.5200   54.6600 C.2   102  PRO102      0.2576
     20  O        -12.9810   94.8480   54.7450 O.2   102  PRO102     -0.2718
     21  CB       -14.0890   97.6260   55.9550 C.3   102  PRO102      0.0282
     22  CG       -12.8070   97.5940   56.7170 C.3   102  PRO102      0.0208
     23  CD       -12.9030   96.4560   57.6870 C.3   102  PRO102      0.0893
     24  N        -14.6370   95.7680   53.5180 N.am  103  LYS103     -0.1966
     25  CA       -14.1310   95.3370   52.2310 C.3   103  LYS103      0.1728
     26  C        -12.8000   96.0250   51.9390 C.2   103  LYS103      0.2616
     27  O        -12.7020   97.2500   52.1110 O.2   103  LYS103     -0.2715
     28  CB       -15.1130   95.6680   51.0990 C.3   103  LYS103      0.0311
     29  CG       -16.4620   94.9970   51.2500 C.3   103  LYS103      0.0038
     30  CD       -17.4830   95.5220   50.2580 C.3   103  LYS103      0.0206
     31  CE       -18.3350   94.3980   49.6770 C.3   103  LYS103      0.1093
     32  NZ       -17.8960   94.0560   48.2890 N.3   103  LYS103     -0.1314
     33  N        -11.7960   95.2800   51.4780 N.am  104  LEU104     -0.1963
     34  CA       -10.4900   95.8950   51.2620 C.3   104  LEU104      0.1728
     35  C        -10.2250   96.1500   49.7810 C.2   104  LEU104      0.2616
     36  O         -9.3720   96.9800   49.4110 O.2   104  LEU104     -0.2715
     37  CB        -9.3870   95.0450   51.9260 C.3   104  LEU104      0.0311
     38  CG        -9.4090   95.0200   53.4660 C.3   104  LEU104      0.0022
     39  CD1       -8.1530   94.3440   53.9970 C.3   104  LEU104      0.0001
     40  CD2       -9.5530   96.4130   54.0620 C.3   104  LEU104      0.0001
     41  N        -10.9750   95.4760   48.9100 N.am  105  GLY105     -0.1955
     42  CA       -10.9000   95.7260   47.4800 C.3   105  GLY105      0.1869
     43  C        -10.8630   97.1970   47.0870 C.2   105  GLY105      0.2309
     44  O         -9.9470   97.5790   46.3440 O.2   105  GLY105     -0.2863
     45  N         -7.3260   98.4810   47.5290 N.3   108  ARG108     -0.1245
     46  CA        -6.2490   97.5900   47.1250 C.3   108  ARG108      0.1563
     47  C         -5.0370   98.3640   46.6390 C.2   108  ARG108      0.2260
     48  O         -3.9340   98.0030   47.0500 O.2   108  ARG108     -0.2867
     49  CB        -6.7430   96.6530   46.0170 C.3   108  ARG108      0.0307
     50  CG        -5.7820   95.6050   45.5140 C.3   108  ARG108      0.0489
     51  CD        -6.3950   94.7120   44.4300 C.3   108  ARG108      0.2205
     52  NE        -7.6690   94.1170   44.8240 N.pl3 108  ARG108     -0.0865
     53  CZ        -7.8350   92.9960   45.5110 C.cat 108  ARG108      0.5346
     54  NH1       -6.7870   92.2830   45.9130 N.pl3 108  ARG108      0.1354
     55  NH2       -9.0570   92.5940   45.7910 N.pl3 108  ARG108      0.1354
     56  N         -7.2190   89.1750   49.6310 N.3   130  PHE130     -0.1227
     57  CA        -8.1740   89.3500   50.7270 C.3   130  PHE130      0.1736
     58  C         -9.2090   88.2350   50.7700 C.2   130  PHE130      0.2595
     59  O         -9.6940   87.8070   49.7220 O.2   130  PHE130     -0.2718
     60  CB        -8.9800   90.6500   50.6230 C.3   130  PHE130      0.0547
     61  CG        -8.1140   91.8710   50.3410 C.ar  130  PHE130     -0.0202
     62  CD1       -7.0530   92.1990   51.1760 C.ar  130  PHE130     -0.0042
     63  CD2       -8.3960   92.6530   49.2320 C.ar  130  PHE130     -0.0042
     64  CE1       -6.2770   93.3150   50.9140 C.ar  130  PHE130     -0.0003
     65  CE2       -7.6040   93.7650   48.9600 C.ar  130  PHE130     -0.0003
     66  CZ        -6.5380   94.0890   49.7870 C.ar  130  PHE130     -0.0000
     67  N         -9.5260   87.8000   51.9860 N.am  131  LYS131     -0.1966
     68  CA       -10.5360   86.7890   52.1810 C.3   131  LYS131      0.1728
     69  C        -11.5310   87.2170   53.2620 C.2   131  LYS131      0.2616
     70  O        -11.1180   87.8790   54.2120 O.2   131  LYS131     -0.2715
     71  CB        -9.9130   85.4660   52.6430 C.3   131  LYS131      0.0311
     72  CG        -8.9670   84.7270   51.7330 C.3   131  LYS131      0.0038
     73  CD        -9.4900   84.5580   50.3130 C.3   131  LYS131      0.0206
     74  CE       -10.8900   83.9790   50.2600 C.3   131  LYS131      0.1093
     75  NZ       -11.2520   83.5470   48.8760 N.3   131  LYS131     -0.1314
     76  N        -12.8090   86.8270   53.1510 N.am  132  THR132     -0.1951
     77  CA       -13.6620   86.9060   54.3390 C.3   132  THR132      0.1897
     78  C        -13.4310   85.6510   55.2000 C.2   132  THR132      0.2313
     79  O        -12.7170   84.7560   54.7440 O.2   132  THR132     -0.2863
     80  CB       -15.1640   87.0220   54.0150 C.3   132  THR132      0.1794
     81  OG1      -15.6620   85.7310   53.6170 O.3   132  THR132     -0.2208
     82  CG2      -15.4370   87.9680   52.8500 C.3   132  THR132      0.0378
     83  N        -15.8800   83.6200   56.1460 N.3   134  GLU134     -0.1245
     84  CA       -17.0190   82.7670   55.7960 C.3   134  GLU134      0.1567
     85  C        -17.7380   82.3270   57.0710 C.2   134  GLU134      0.2260
     86  O        -18.3050   81.2510   57.2100 O.2   134  GLU134     -0.2867
     87  CB       -16.6060   81.5600   54.9460 C.3   134  GLU134      0.0388
     88  CG       -15.9010   81.9270   53.6360 C.3   134  GLU134      0.1160
     89  CD       -16.8880   82.3760   52.5820 C.2   134  GLU134      0.3649
     90  OE1      -16.5190   83.1340   51.6660 O.co2 134  GLU134     -0.2457
     91  OE2      -18.0660   81.9630   52.6890 O.co2 134  GLU134     -0.2457
@<TRIPOS>BOND
     1    51    52    1
     2    51    50    1
     3    52    53    2
     4    53    55    1
     5    53    54    1
     6    50    49    1
     7    49    46    1
     8    44    43    2
     9    47    48    2
    10    47    46    1
    11    43    42    1
    12    46    45    1
    13    42    41    1
    14    32    31    1
    15    75    74    1
    16    41    35   am
    17    65    63   ar
    18    65    66   ar
    19    63    61   ar
    20    36    35    2
    21    56    57    1
    22    31    30    1
    23    59    58    2
    24    35    34    1
    25    66    64   ar
    26    30    29    1
    27    74    73    1
    28    73    72    1
    29    61    60    1
    30    61    62   ar
    31    60    57    1
    32    57    58    1
    33    58    67   am
    34    64    62   ar
    35    28    29    1
    36    28    25    1
    37    34    33    1
    38    34    37    1
    39    33    26   am
    40    90    89   ar
    41    72    71    1
    42    37    38    1
    43    26    27    2
    44    26    25    1
    45    67    68    1
    46    68    71    1
    47    68    69    1
    48    25    24    1
    49    89    91   ar
    50    89    88    1
    51    82    80    1
    52    76    69   am
    53    76    77    1
    54    69    70    2
    55    38    39    1
    56    38    40    1
    57    24    19   am
    58    81    80    1
    59    88    87    1
    60    80    77    1
    61    77    78    1
    62    19    20    2
    63    19    18    1
    64    79    78    2
    65    87    84    1
    66    12    11    2
    67     4     3    2
    68    84    83    1
    69    84    85    1
    70     8     6    1
    71    18    21    1
    72    18    17    1
    73    21    22    1
    74    11    10    1
    75    22    23    1
    76     6     7    1
    77     6     5    1
    78     3     9   am
    79     3     2    1
    80     1     2    1
    81    10     9    1
    82    10    13    1
    83    85    86    2
    84    17    23    1
    85     2     5    1
    86    13    14    1
    87    15    14   ar
    88    14    16   ar
