@<TRIPOS>MOLECULE
tmp/1iv4B01.pdb
 91 88 0 0 0
SMALL
GASTEIGER

@<TRIPOS>ATOM
      1  N         -0.9780   79.7810   70.4570 N.3    99  LEU99      -0.1231
      2  CA        -1.6090   79.2410   71.6590 C.3    99  LEU99       0.1693
      3  C         -1.6620   80.3100   72.7510 C.2    99  LEU99       0.2592
      4  O         -0.7670   81.1390   72.8570 O.2    99  LEU99      -0.2718
      5  CB        -0.9250   77.9910   72.1990 C.3    99  LEU99       0.0284
      6  CG         0.4050   78.2090   72.9070 C.3    99  LEU99       0.0019
      7  CD1        0.8040   76.9810   73.7070 C.3    99  LEU99       0.0001
      8  CD2        1.4580   78.5870   71.8770 C.3    99  LEU99       0.0001
      9  N         -2.7470   80.2320   73.5230 N.am  100  ASP100     -0.1974
     10  CA        -2.9790   81.3560   74.4310 C.3   100  ASP100      0.1709
     11  C         -2.0590   81.2780   75.6360 C.2   100  ASP100      0.2293
     12  O         -1.5470   82.2790   76.1460 O.2   100  ASP100     -0.2864
     13  CB        -4.4470   81.3360   74.9000 C.3   100  ASP100      0.1436
     14  CG        -5.3830   81.9190   73.8670 C.2   100  ASP100      0.3671
     15  OD1       -5.0630   81.8570   72.6690 O.co2 100  ASP100     -0.2456
     16  OD2       -6.4510   82.4390   74.2560 O.co2 100  ASP100     -0.2456
     17  N          0.6090   78.0870   77.7750 N.3   102  PRO102     -0.2102
     18  CA         1.4040   79.0040   78.5720 C.3   102  PRO102      0.1504
     19  C          2.2890   79.8780   77.6850 C.2   102  PRO102      0.2576
     20  O          2.3450   79.6430   76.4710 O.2   102  PRO102     -0.2718
     21  CB         2.3060   78.0620   79.3730 C.3   102  PRO102      0.0282
     22  CG         2.4400   76.8540   78.5330 C.3   102  PRO102      0.0208
     23  CD         1.2480   76.7550   77.6310 C.3   102  PRO102      0.0893
     24  N          2.9430   80.8600   78.3150 N.am  103  LYS103     -0.1966
     25  CA         3.8950   81.6760   77.5550 C.3   103  LYS103      0.1728
     26  C          5.0680   80.8280   77.0790 C.2   103  LYS103      0.2616
     27  O          5.6280   80.1070   77.9240 O.2   103  LYS103     -0.2715
     28  CB         4.4640   82.7990   78.4100 C.3   103  LYS103      0.0311
     29  CG         3.9370   84.1980   78.1480 C.3   103  LYS103      0.0038
     30  CD         3.6810   84.9330   79.4560 C.3   103  LYS103      0.0206
     31  CE         3.0210   86.2910   79.2040 C.3   103  LYS103      0.1093
     32  NZ         3.3050   87.2380   80.3330 N.3   103  LYS103     -0.1314
     33  N          5.4470   80.9290   75.8200 N.am  104  LEU104     -0.1963
     34  CA         6.5720   80.1560   75.2920 C.3   104  LEU104      0.1728
     35  C          7.8710   80.9250   75.2900 C.2   104  LEU104      0.2616
     36  O          8.9340   80.2890   75.1670 O.2   104  LEU104     -0.2715
     37  CB         6.2580   79.6230   73.8710 C.3   104  LEU104      0.0311
     38  CG         5.0800   78.6230   73.8640 C.3   104  LEU104      0.0022
     39  CD1        4.7310   78.1300   72.4680 C.3   104  LEU104      0.0001
     40  CD2        5.3900   77.4380   74.7700 C.3   104  LEU104      0.0001
     41  N          7.8460   82.2430   75.4130 N.am  105  GLY105     -0.1955
     42  CA         9.0590   83.0280   75.5150 C.3   105  GLY105      0.1869
     43  C         10.0960   82.4620   76.4620 C.2   105  GLY105      0.2309
     44  O         11.2740   82.3240   76.0870 O.2   105  GLY105     -0.2863
     45  N         12.0320   79.7240   74.7460 N.3   108  ARG108     -0.1245
     46  CA        12.4300   79.9740   73.3630 C.3   108  ARG108      0.1563
     47  C         13.7530   79.3250   72.9970 C.2   108  ARG108      0.2260
     48  O         13.8490   78.6350   71.9730 O.2   108  ARG108     -0.2867
     49  CB        12.4670   81.4890   73.1310 C.3   108  ARG108      0.0307
     50  CG        12.8490   81.8370   71.6920 C.3   108  ARG108      0.0489
     51  CD        12.8730   83.3510   71.5140 C.3   108  ARG108      0.2205
     52  NE        11.6430   84.0070   71.9330 N.pl3 108  ARG108     -0.0865
     53  CZ        10.5560   84.2510   71.2020 C.cat 108  ARG108      0.5346
     54  NH1       10.4820   83.8820   69.9240 N.pl3 108  ARG108      0.1354
     55  NH2        9.5120   84.8730   71.7560 N.pl3 108  ARG108      0.1354
     56  N          5.9330   82.8770   68.0790 N.3   130  PHE130     -0.1227
     57  CA         4.7990   82.4600   68.8980 C.3   130  PHE130      0.1736
     58  C          3.7330   83.5410   68.8630 C.2   130  PHE130      0.2595
     59  O          4.0390   84.7370   68.7880 O.2   130  PHE130     -0.2718
     60  CB         5.1950   82.2300   70.3520 C.3   130  PHE130      0.0547
     61  CG         6.4560   81.4290   70.5960 C.ar  130  PHE130     -0.0202
     62  CD1        6.6640   80.2060   69.9830 C.ar  130  PHE130     -0.0042
     63  CD2        7.4400   81.9170   71.4390 C.ar  130  PHE130     -0.0042
     64  CE1        7.8230   79.4900   70.2310 C.ar  130  PHE130     -0.0003
     65  CE2        8.5890   81.2010   71.7050 C.ar  130  PHE130     -0.0003
     66  CZ         8.8000   79.9790   71.0870 C.ar  130  PHE130     -0.0000
     67  N          2.4700   83.1480   68.9230 N.am  131  LYS131     -0.1966
     68  CA         1.4150   84.1370   69.0690 C.3   131  LYS131      0.1728
     69  C          0.2770   83.5300   69.8850 C.2   131  LYS131      0.2616
     70  O          0.1320   82.3050   69.9380 O.2   131  LYS131     -0.2715
     71  CB         0.8470   84.6070   67.7280 C.3   131  LYS131      0.0311
     72  CG         1.7610   84.8290   66.5610 C.3   131  LYS131      0.0038
     73  CD         2.1670   86.2860   66.4460 C.3   131  LYS131      0.0206
     74  CE         1.3530   87.2020   67.3340 C.3   131  LYS131      0.1093
     75  NZ         1.7760   88.6300   67.2560 N.3   131  LYS131     -0.1314
     76  N         -0.5370   84.3720   70.5110 N.am  132  THR132     -0.1951
     77  CA        -1.7970   83.8790   71.0680 C.3   132  THR132      0.1897
     78  C         -2.8810   83.8730   70.0050 C.2   132  THR132      0.2313
     79  O         -2.6470   84.3380   68.8820 O.2   132  THR132     -0.2863
     80  CB        -2.3010   84.7770   72.2200 C.3   132  THR132      0.1794
     81  OG1       -2.6370   86.0660   71.6690 O.3   132  THR132     -0.2208
     82  CG2       -1.1680   85.0160   73.1800 C.3   132  THR132      0.0378
     83  N         -5.6810   85.5700   70.4340 N.3   134  GLU134     -0.1245
     84  CA        -6.4810   86.7600   70.7480 C.3   134  GLU134      0.1567
     85  C         -7.9430   86.3710   70.9540 C.2   134  GLU134      0.2260
     86  O         -8.8760   87.0550   70.5150 O.2   134  GLU134     -0.2867
     87  CB        -6.2900   87.8070   69.6540 C.3   134  GLU134      0.0388
     88  CG        -4.8810   88.3700   69.5550 C.3   134  GLU134      0.1160
     89  CD        -4.5240   89.3480   70.6580 C.2   134  GLU134      0.3649
     90  OE1       -3.3120   89.5040   70.9450 O.co2 134  GLU134     -0.2457
     91  OE2       -5.4360   89.9840   71.2400 O.co2 134  GLU134     -0.2457
@<TRIPOS>BOND
     1    73    72    1
     2    73    74    1
     3    72    71    1
     4    75    74    1
     5    71    68    1
     6    56    57    1
     7    59    58    2
     8    58    57    1
     9    58    67   am
    10    79    78    2
    11    57    60    1
    12    67    68    1
    13    68    69    1
    14    88    87    1
    15    88    89    1
    16    87    84    1
    17    69    70    2
    18    69    76   am
    19    54    53    1
    20    62    64   ar
    21    62    61   ar
    22    78    77    1
    23    64    66   ar
    24    60    61    1
    25    83    84    1
    26     1     2    1
    27    76    77    1
    28    86    85    2
    29    61    63   ar
    30    89    90   ar
    31    89    91   ar
    32    84    85    1
    33    77    80    1
    34    66    65   ar
    35    53    55    1
    36    53    52    2
    37    63    65   ar
    38    51    50    1
    39    51    52    1
    40     2     5    1
    41     2     3    1
    42    81    80    1
    43    50    49    1
    44     8     6    1
    45    48    47    2
    46     5     6    1
    47    80    82    1
    48    39    38    1
    49    15    14   ar
    50     3     4    2
    51     3     9   am
    52     6     7    1
    53    47    46    1
    54    49    46    1
    55    46    45    1
    56     9    10    1
    57    38    37    1
    58    38    40    1
    59    14    16   ar
    60    14    13    1
    61    37    34    1
    62    10    13    1
    63    10    11    1
    64    36    35    2
    65    35    34    1
    66    35    41   am
    67    34    33    1
    68    41    42    1
    69    42    43    1
    70    11    12    2
    71    33    26   am
    72    44    43    2
    73    20    19    2
    74    26    25    1
    75    26    27    2
    76    25    24    1
    77    25    28    1
    78    23    17    1
    79    23    22    1
    80    19    24   am
    81    19    18    1
    82    17    18    1
    83    29    28    1
    84    29    30    1
    85    22    21    1
    86    18    21    1
    87    31    30    1
    88    31    32    1
