@<TRIPOS>MOLECULE
tmp/1ivbA01.pdb
 169 162 0 0 0
SMALL
GASTEIGER

@<TRIPOS>ATOM
      1  N         42.9410   -8.3930   65.2460 N.3    40  ARG40      -0.1231
      2  CA        42.1590   -9.6300   65.1090 C.3    40  ARG40       0.1694
      3  C         41.6290   -9.5160   63.7030 C.2    40  ARG40       0.2591
      4  O         41.8300   -8.5080   63.0530 O.2    40  ARG40      -0.2718
      5  CB        40.9720   -9.7110   66.0820 C.3    40  ARG40       0.0321
      6  CG        41.0610  -10.8490   67.0900 C.3    40  ARG40       0.0489
      7  CD        39.7070  -11.3500   67.4900 C.3    40  ARG40       0.2205
      8  NE        39.0940  -12.1830   66.4500 N.pl3  40  ARG40      -0.0865
      9  CZ        37.7940  -12.4740   66.3730 C.cat  40  ARG40       0.5346
     10  NH1       36.9400  -11.9730   67.2550 N.pl3  40  ARG40       0.1354
     11  NH2       37.3470  -13.2540   65.3980 N.pl3  40  ARG40       0.1354
     12  N         40.8750  -10.5000   63.2620 N.am   41  GLU41      -0.1979
     13  CA        40.3300  -10.4810   61.9100 C.3    41  GLU41       0.1602
     14  C         41.4570  -10.3990   60.8530 C.2    41  GLU41       0.2287
     15  O         41.4210   -9.5320   59.9530 O.2    41  GLU41      -0.2864
     16  CB        39.3380   -9.3090   61.7220 C.3    41  GLU41       0.0415
     17  CG        38.7050   -8.7180   63.0210 C.3    41  GLU41       0.1163
     18  CD        37.6390   -9.6080   63.6120 C.2    41  GLU41       0.3649
     19  OE1       37.0590  -10.4120   62.8380 O.co2  41  GLU41      -0.2457
     20  OE2       37.3890   -9.5040   64.8420 O.co2  41  GLU41      -0.2457
     21  N         34.4680   -5.4610   69.3180 N.3    73  ASP73      -0.1225
     22  CA        34.6280   -5.4840   67.8690 C.3    73  ASP73       0.1805
     23  C         34.6500   -4.1680   67.1310 C.2    73  ASP73       0.2597
     24  O         35.3990   -3.9930   66.1760 O.2    73  ASP73      -0.2718
     25  CB        33.5490   -6.3400   67.2320 C.3    73  ASP73       0.1424
     26  CG        33.6570   -7.7740   67.6200 C.2    73  ASP73       0.3668
     27  OD1       34.8010   -8.2540   67.7560 O.co2  73  ASP73      -0.2456
     28  OD2       32.6000   -8.4230   67.7710 O.co2  73  ASP73      -0.2456
     29  N         33.7960   -3.2490   67.5460 N.am   74  ARG74      -0.1979
     30  CA        33.7070   -1.9750   66.8480 C.3    74  ARG74       0.1597
     31  C         33.8650   -0.7270   67.7180 C.2    74  ARG74       0.2287
     32  O         33.2640   -0.5960   68.7820 O.2    74  ARG74      -0.2864
     33  CB        32.3750   -1.9210   66.0660 C.3    74  ARG74       0.0334
     34  CG        32.0180   -3.2180   65.3140 C.3    74  ARG74       0.0492
     35  CD        30.5930   -3.2240   64.7910 C.3    74  ARG74       0.2205
     36  NE        29.5720   -3.0600   65.8400 N.pl3  74  ARG74      -0.0865
     37  CZ        29.1080   -4.0350   66.6310 C.cat  74  ARG74       0.5346
     38  NH1       29.6150   -5.2580   66.5730 N.pl3  74  ARG74       0.1354
     39  NH2       28.1650   -3.7810   67.5230 N.pl3  74  ARG74       0.1354
     40  N         39.7370    1.3890   65.6740 N.3    78  ARG78      -0.1245
     41  CA        40.0930    0.2960   64.7860 C.3    78  ARG78       0.1563
     42  C         40.5210    0.7820   63.4100 C.2    78  ARG78       0.2260
     43  O         40.0760    1.8380   62.9650 O.2    78  ARG78      -0.2867
     44  CB        38.9390   -0.7150   64.6790 C.3    78  ARG78       0.0307
     45  CG        38.7990   -1.6050   65.8840 C.3    78  ARG78       0.0489
     46  CD        38.1900   -2.9230   65.5020 C.3    78  ARG78       0.2205
     47  NE        39.1250   -4.0480   65.6410 N.pl3  78  ARG78      -0.0865
     48  CZ        38.8400   -5.3130   65.3100 C.cat  78  ARG78       0.5346
     49  NH1       37.6430   -5.6410   64.8170 N.pl3  78  ARG78       0.1354
     50  NH2       39.7460   -6.2600   65.4630 N.pl3  78  ARG78       0.1354
     51  N         36.0530   -1.1090   61.0300 N.3   101  TRP101     -0.1227
     52  CA        35.9140   -2.1300   62.0700 C.3   101  TRP101      0.1737
     53  C         35.4060   -3.4260   61.4080 C.2   101  TRP101      0.2596
     54  O         35.0170   -4.4030   62.0660 O.2   101  TRP101     -0.2718
     55  CB        35.1160   -1.6410   63.3330 C.3   101  TRP101      0.0564
     56  CG        33.9190   -0.7440   63.0860 C.ar  101  TRP101      0.0003
     57  CD1       33.8090    0.5850   63.3900 C.ar  101  TRP101      0.0946
     58  CD2       32.6980   -1.1070   62.4270 C.ar  101  TRP101      0.0152
     59  NE1       32.6030    1.0710   62.9500 N.ar  101  TRP101     -0.2442
     60  CE2       31.9020    0.0530   62.3570 C.ar  101  TRP101      0.0810
     61  CE3       32.2040   -2.3040   61.8870 C.ar  101  TRP101      0.0012
     62  CZ2       30.6310    0.0490   61.7660 C.ar  101  TRP101      0.0191
     63  CZ3       30.9570   -2.3160   61.3030 C.ar  101  TRP101      0.0001
     64  CH2       30.1780   -1.1510   61.2440 C.ar  101  TRP101      0.0015
     65  N         35.4460   -3.4170   60.0760 N.am  102  SER102     -0.1952
     66  CA        35.0920   -4.5830   59.2610 C.3   102  SER102      0.1924
     67  C         35.8270   -4.3920   57.9490 C.2   102  SER102      0.2314
     68  O         36.0610   -3.2420   57.5650 O.2   102  SER102     -0.2863
     69  CB        33.5790   -4.7100   59.0280 C.3   102  SER102      0.2116
     70  OG        33.2980   -5.9260   58.3450 O.3   102  SER102     -0.2180
     71  N         24.2120   -2.9320   61.5990 N.3   145  ILE145     -0.1245
     72  CA        25.6400   -3.2840   61.4940 C.3   145  ILE145      0.1561
     73  C         26.1080   -3.7830   60.1250 C.2   145  ILE145      0.2260
     74  O         26.3120   -4.9900   59.9270 O.2   145  ILE145     -0.2867
     75  CB        26.0690   -4.3060   62.6060 C.3   145  ILE145      0.0252
     76  CG1       25.9100   -3.6810   63.9960 C.3   145  ILE145      0.0019
     77  CG2       27.5170   -4.8530   62.3590 C.3   145  ILE145      0.0019
     78  CD1       26.2470   -4.6250   65.0940 C.3   145  ILE145      0.0001
     79  N         28.3510   -4.9660   57.4850 N.3   147  ARG147     -0.1245
     80  CA        29.6490   -5.6240   57.6480 C.3   147  ARG147      0.1563
     81  C         30.1000   -6.1590   56.3070 C.2   147  ARG147      0.2260
     82  O         29.3390   -6.1390   55.3170 O.2   147  ARG147     -0.2867
     83  CB        29.5770   -6.8350   58.6000 C.3   147  ARG147      0.0307
     84  CG        28.5990   -6.7820   59.7220 C.3   147  ARG147      0.0489
     85  CD        27.9750   -8.1490   59.8930 C.3   147  ARG147      0.2205
     86  NE        27.1190   -8.2180   61.0780 N.pl3 147  ARG147     -0.0865
     87  CZ        25.7880   -8.1380   61.0720 C.cat 147  ARG147      0.5346
     88  NH1       25.1360   -7.9850   59.9270 N.pl3 147  ARG147      0.1354
     89  NH2       25.1160   -8.2030   62.2270 N.pl3 147  ARG147      0.1354
     90  N         35.7190  -10.0530   55.8220 N.3   150  GLU150     -0.1245
     91  CA        36.8130  -10.2220   56.7660 C.3   150  GLU150      0.1567
     92  C         37.8900  -11.1200   56.1800 C.2   150  GLU150      0.2260
     93  O         38.7930  -11.5720   56.8690 O.2   150  GLU150     -0.2867
     94  CB        36.3250  -10.7500   58.1030 C.3   150  GLU150      0.0388
     95  CG        35.1560   -9.9920   58.6760 C.3   150  GLU150      0.1160
     96  CD        35.4260   -8.5320   58.9660 C.2   150  GLU150      0.3649
     97  OE1       36.5540   -8.0160   58.7160 O.co2 150  GLU150     -0.2457
     98  OE2       34.4820   -7.9000   59.4840 O.co2 150  GLU150     -0.2457
     99  N         22.1510  -10.2420   64.3700 N.3   169  ALA169     -0.1245
    100  CA        22.9350  -11.4640   64.5400 C.3   169  ALA169      0.1562
    101  C         21.9850  -12.6030   64.9210 C.2   169  ALA169      0.2260
    102  O         22.1080  -13.7200   64.4050 O.2   169  ALA169     -0.2867
    103  CB        23.9730  -11.2700   65.6240 C.3   169  ALA169      0.0290
    104  N         26.4520  -14.2510   56.3500 N.3   199  GLU199     -0.1231
    105  CA        27.4760  -13.2780   56.7240 C.3   199  GLU199      0.1699
    106  C         28.8910  -13.9130   56.6760 C.2   199  GLU199      0.2592
    107  O         29.0200  -15.1320   56.5530 O.2   199  GLU199     -0.2718
    108  CB        27.1900  -12.7040   58.1260 C.3   199  GLU199      0.0402
    109  CG        27.5430  -13.6730   59.2630 C.3   199  GLU199      0.1161
    110  CD        27.3760  -13.0660   60.6280 C.2   199  GLU199      0.3649
    111  OE1       27.2740  -11.8230   60.6810 O.co2 199  GLU199     -0.2457
    112  OE2       27.3440  -13.8240   61.6380 O.co2 199  GLU199     -0.2457
    113  N         29.9220  -13.0510   56.7240 N.am  200  GLU200     -0.1979
    114  CA        31.3500  -13.4380   56.7010 C.3   200  GLU200      0.1602
    115  C         31.6730  -14.4950   55.6560 C.2   200  GLU200      0.2287
    116  O         32.2280  -15.5590   55.9670 O.2   200  GLU200     -0.2864
    117  CB        31.8160  -13.9080   58.0920 C.3   200  GLU200      0.0415
    118  CG        32.2550  -12.7790   59.0100 C.3   200  GLU200      0.1163
    119  CD        32.0350  -13.0840   60.4690 C.2   200  GLU200      0.3649
    120  OE1       31.3190  -14.0460   60.7690 O.co2 200  GLU200     -0.2457
    121  OE2       32.5540  -12.3370   61.3200 O.co2 200  GLU200     -0.2457
    122  N         28.7160  -17.7010   56.9360 N.3   216  ARG216     -0.1245
    123  CA        28.2200  -17.7370   58.3020 C.3   216  ARG216      0.1563
    124  C         26.7620  -17.3060   58.5430 C.2   216  ARG216      0.2260
    125  O         26.3040  -16.2690   58.0620 O.2   216  ARG216     -0.2867
    126  CB        29.1750  -16.9570   59.2160 C.3   216  ARG216      0.0307
    127  CG        28.8520  -17.0900   60.7020 C.3   216  ARG216      0.0489
    128  CD        30.0010  -16.6290   61.5350 C.3   216  ARG216      0.2205
    129  NE        29.6620  -15.6860   62.5980 N.pl3 216  ARG216     -0.0865
    130  CZ        30.5480  -15.2440   63.4960 C.cat 216  ARG216      0.5346
    131  NH1       31.8080  -15.6880   63.4510 N.pl3 216  ARG216      0.1354
    132  NH2       30.1800  -14.3750   64.4360 N.pl3 216  ARG216      0.1354
    133  N         36.0320  -22.5500   70.5880 N.3   298  ARG298     -0.1245
    134  CA        36.9940  -22.2130   69.5470 C.3   298  ARG298      0.1563
    135  C         38.3470  -22.8730   69.7790 C.2   298  ARG298      0.2260
    136  O         39.3810  -22.3120   69.4940 O.2   298  ARG298     -0.2867
    137  CB        37.1340  -20.6950   69.4190 C.3   298  ARG298      0.0307
    138  CG        35.8390  -20.0070   69.1710 C.3   298  ARG298      0.0489
    139  CD        36.0120  -18.8120   68.2850 C.3   298  ARG298      0.2205
    140  NE        34.7530  -18.3050   67.7240 N.pl3 298  ARG298     -0.0865
    141  CZ        34.5640  -17.0560   67.2990 C.cat 298  ARG298      0.5346
    142  NH1       35.5300  -16.1570   67.3700 N.pl3 298  ARG298      0.1354
    143  NH2       33.4000  -16.7040   66.8010 N.pl3 298  ARG298      0.1354
    144  N         40.2330  -19.7660   65.9660 N.3   332  TRP332     -0.1227
    145  CA        39.1400  -18.8240   65.7570 C.3   332  TRP332      0.1737
    146  C         38.8150  -18.6980   64.2770 C.2   332  TRP332      0.2595
    147  O         38.6190  -19.6900   63.5860 O.2   332  TRP332     -0.2718
    148  CB        39.4820  -17.4650   66.3950 C.3   332  TRP332      0.0564
    149  CG        39.4450  -17.5290   67.8920 C.ar  332  TRP332      0.0003
    150  CD1       40.0140  -18.4960   68.6750 C.ar  332  TRP332      0.0946
    151  CD2       38.7540  -16.6420   68.7990 C.ar  332  TRP332      0.0152
    152  NE1       39.7150  -18.2720   70.0030 N.ar  332  TRP332     -0.2442
    153  CE2       38.9500  -17.1390   70.1070 C.ar  332  TRP332      0.0810
    154  CE3       38.0040  -15.4800   68.6380 C.ar  332  TRP332      0.0012
    155  CZ2       38.4150  -16.5020   71.2460 C.ar  332  TRP332      0.0191
    156  CZ3       37.4810  -14.8520   69.7670 C.ar  332  TRP332      0.0001
    157  CH2       37.6880  -15.3620   71.0510 C.ar  332  TRP332      0.0015
    158  N         38.8040  -17.4840   63.7640 N.am  333  TYR333     -0.1976
    159  CA        38.4880  -17.2880   62.3570 C.3   333  TYR333      0.1639
    160  C         39.3850  -17.9900   61.3510 C.2   333  TYR333      0.2290
    161  O         40.5720  -18.1040   61.5430 O.2   333  TYR333     -0.2864
    162  CB        38.4620  -15.7890   62.0280 C.3   333  TYR333      0.0560
    163  CG        37.1900  -15.0790   62.4240 C.ar  333  TYR333     -0.0198
    164  CD1       36.4240  -15.5190   63.5210 C.ar  333  TYR333     -0.0009
    165  CD2       36.7590  -13.9600   61.7130 C.ar  333  TYR333     -0.0009
    166  CE1       35.2550  -14.8500   63.8980 C.ar  333  TYR333      0.0417
    167  CE2       35.6060  -13.2860   62.0690 C.ar  333  TYR333      0.0417
    168  CZ        34.8570  -13.7340   63.1600 C.ar  333  TYR333      0.1957
    169  OH        33.7120  -13.0740   63.4830 O.3   333  TYR333     -0.2866
@<TRIPOS>BOND
     1    82    81    2
     2   115   116    2
     3   115   114    1
     4    90    91    1
     5    92    91    1
     6    92    93    2
     7    81    80    1
     8   104   105    1
     9   107   106    2
    10   106   113   am
    11   106   105    1
    12   114   113    1
    13   114   117    1
    14   105   108    1
    15    91    94    1
    16   122   123    1
    17    79    80    1
    18    68    67    2
    19    80    83    1
    20    67    66    1
    21   125   124    2
    22   117   118    1
    23    94    95    1
    24   108   109    1
    25   123   124    1
    26   123   126    1
    27    70    69    1
    28    83    84    1
    29    95    96    1
    30    97    96   ar
    31    96    98   ar
    32   118   119    1
    33    69    66    1
    34   126   127    1
    35    66    65    1
    36   109   110    1
    37    84    85    1
    38    85    86    1
    39    88    87    1
    40    74    73    2
    41    15    14    2
    42    65    53   am
    43    73    72    1
    44   119   120   ar
    45   119   121   ar
    46   110   111   ar
    47   110   112   ar
    48   127   128    1
    49    14    13    1
    50    51    52    1
    51    87    86    2
    52    87    89    1
    53    64    63   ar
    54    64    62   ar
    55    63    61   ar
    56   160   161    2
    57   160   159    1
    58    53    54    2
    59    53    52    1
    60    72    71    1
    61    72    75    1
    62   128   129    1
    63   165   167   ar
    64   165   163   ar
    65    16    13    1
    66    16    17    1
    67    62    60   ar
    68    61    58   ar
    69    13    12    1
    70   162   159    1
    71   162   163    1
    72   167   168   ar
    73    52    55    1
    74    60    58   ar
    75    60    59   ar
    76   159   158    1
    77    77    75    1
    78   163   164   ar
    79    58    56   ar
    80   129   130    2
    81    75    76    1
    82    19    18   ar
    83    59    57   ar
    84    43    42    2
    85    17    18    1
    86     4     3    2
    87    56    55    1
    88    56    57   ar
    89   168   169    1
    90   168   166   ar
    91    12     3   am
    92    42    41    1
    93   131   130    1
    94   130   132    1
    95   164   166   ar
    96   147   146    2
    97    18    20   ar
    98     3     2    1
    99   158   146   am
   100    76    78    1
   101   146   145    1
   102    99   100    1
   103   102   101    2
   104   100   101    1
   105   100   103    1
   106    44    41    1
   107    44    45    1
   108    41    40    1
   109    35    34    1
   110    35    36    1
   111    49    48    1
   112     2     1    1
   113     2     5    1
   114    48    50    1
   115    48    47    2
   116    34    33    1
   117    11     9    1
   118    46    47    1
   119    46    45    1
   120   145   144    1
   121   145   148    1
   122    36    37    2
   123    33    30    1
   124     5     6    1
   125    24    23    2
   126     9     8    2
   127     9    10    1
   128   148   149    1
   129     8     7    1
   130    38    37    1
   131    37    39    1
   132   143   141    1
   133    30    29    1
   134    30    31    1
   135     6     7    1
   136    23    29   am
   137    23    22    1
   138    25    26    1
   139    25    22    1
   140   141   142    1
   141   141   140    2
   142    26    27   ar
   143    26    28   ar
   144    31    32    2
   145   140   139    1
   146    22    21    1
   147   149   150   ar
   148   149   151   ar
   149   139   138    1
   150   154   151   ar
   151   154   156   ar
   152   150   152   ar
   153   151   153   ar
   154   138   137    1
   155   137   134    1
   156   136   135    2
   157   134   135    1
   158   134   133    1
   159   156   157   ar
   160   152   153   ar
   161   153   155   ar
   162   157   155   ar
