@<TRIPOS>MOLECULE
tmp/1ivcA03.pdb
 130 123 0 0 0
SMALL
GASTEIGER

@<TRIPOS>ATOM
      1  N         47.8160   15.3390  -13.3230 N.3    37  ARG37      -0.1231
      2  CA        47.7590   16.7220  -13.7650 C.3    37  ARG37       0.1694
      3  C         46.3880   16.9470  -14.3390 C.2    37  ARG37       0.2591
      4  O         45.6040   16.0010  -14.4750 O.2    37  ARG37      -0.2718
      5  CB        48.8500   17.1430  -14.7650 C.3    37  ARG37       0.0321
      6  CG        49.8610   18.1700  -14.1630 C.3    37  ARG37       0.0489
      7  CD        50.3280   19.2850  -15.1210 C.3    37  ARG37       0.2205
      8  NE        49.3270   20.3470  -15.3350 N.pl3  37  ARG37      -0.0865
      9  CZ        49.2270   21.0970  -16.4400 C.cat  37  ARG37       0.5346
     10  NH1       50.0560   20.9040  -17.4640 N.pl3  37  ARG37       0.1354
     11  NH2       48.2830   22.0300  -16.5290 N.pl3  37  ARG37       0.1354
     12  N         46.1210   18.2100  -14.6710 N.am   38  GLU38      -0.1979
     13  CA        44.8490   18.6530  -15.2010 C.3    38  GLU38       0.1602
     14  C         43.7240   18.0330  -14.3950 C.2    38  GLU38       0.2287
     15  O         42.8770   17.3250  -14.9430 O.2    38  GLU38      -0.2864
     16  CB        44.6970   18.3090  -16.6800 C.3    38  GLU38       0.0415
     17  CG        45.6750   19.0190  -17.5800 C.3    38  GLU38       0.1163
     18  CD        46.9750   18.2680  -17.7360 C.2    38  GLU38       0.3649
     19  OE1       47.0060   17.0970  -17.3370 O.co2  38  GLU38      -0.2457
     20  OE2       47.9580   18.8220  -18.2740 O.co2  38  GLU38      -0.2457
     21  N         52.0250   16.0760  -22.1320 N.3    70  ASP70      -0.1225
     22  CA        50.5900   16.0070  -21.9280 C.3    70  ASP70       0.1805
     23  C         49.8390   14.8070  -22.4600 C.2    70  ASP70       0.2597
     24  O         48.8800   14.3580  -21.8210 O.2    70  ASP70      -0.2718
     25  CB        49.9420   17.2840  -22.4800 C.3    70  ASP70       0.1424
     26  CG        50.6760   18.5460  -22.0270 C.2    70  ASP70       0.3668
     27  OD1       50.4170   19.0230  -20.8950 O.co2  70  ASP70      -0.2456
     28  OD2       51.5470   19.0360  -22.7900 O.co2  70  ASP70      -0.2456
     29  N         50.2770   14.2420  -23.5810 N.am   71  ARG71      -0.1979
     30  CA        49.5050   13.1500  -24.1700 C.3    71  ARG71       0.1597
     31  C         50.2200   11.8860  -24.5750 C.2    71  ARG71       0.2287
     32  O         50.8390   11.8480  -25.6230 O.2    71  ARG71      -0.2864
     33  CB        48.7560   13.6580  -25.4090 C.3    71  ARG71       0.0334
     34  CG        47.9520   14.9300  -25.2160 C.3    71  ARG71       0.0492
     35  CD        47.4570   15.4870  -26.5470 C.3    71  ARG71       0.2205
     36  NE        48.5750   15.8590  -27.4100 N.pl3  71  ARG71      -0.0865
     37  CZ        49.2850   16.9780  -27.2970 C.cat  71  ARG71       0.5346
     38  NH1       49.0080   17.8820  -26.3680 N.pl3  71  ARG71       0.1354
     39  NH2       50.2780   17.1980  -28.1330 N.pl3  71  ARG71       0.1354
     40  N         43.4190   11.6770  -22.2950 N.3    97  TRP97      -0.1227
     41  CA        44.3730   12.7500  -22.0390 C.3    97  TRP97       0.1737
     42  C         43.6210   14.0760  -22.0400 C.2    97  TRP97       0.2596
     43  O         44.2230   15.1360  -21.9800 O.2    97  TRP97      -0.2718
     44  CB        45.6090   12.7610  -22.9660 C.3    97  TRP97       0.0564
     45  CG        45.4420   12.4860  -24.4410 C.ar   97  TRP97       0.0003
     46  CD1       46.0050   11.4570  -25.1310 C.ar   97  TRP97       0.0946
     47  CD2       44.7800   13.3060  -25.4210 C.ar   97  TRP97       0.0152
     48  NE1       45.7460   11.5820  -26.4700 N.ar   97  TRP97      -0.2442
     49  CE2       44.9970   12.7100  -26.6770 C.ar   97  TRP97       0.0810
     50  CE3       44.0370   14.4880  -25.3580 C.ar   97  TRP97       0.0012
     51  CZ2       44.5000   13.2600  -27.8670 C.ar   97  TRP97       0.0191
     52  CZ3       43.5420   15.0330  -26.5380 C.ar   97  TRP97       0.0001
     53  CH2       43.7790   14.4180  -27.7730 C.ar   97  TRP97       0.0015
     54  N         42.2940   13.9850  -22.0140 N.am   98  SER98      -0.1952
     55  CA        41.4090   15.1380  -21.9860 C.3    98  SER98       0.1924
     56  C         40.1050   14.6190  -21.3710 C.2    98  SER98       0.2314
     57  O         39.7970   13.4580  -21.5480 O.2    98  SER98      -0.2863
     58  CB        41.1690   15.6530  -23.4120 C.3    98  SER98       0.2116
     59  OG        41.0050   17.0590  -23.4560 O.3    98  SER98      -0.2180
     60  N         44.3620   17.8080  -32.5150 N.3   141  ILE141     -0.1245
     61  CA        44.1790   17.6160  -31.0820 C.3   141  ILE141      0.1561
     62  C         42.8340   18.0220  -30.5410 C.2   141  ILE141      0.2260
     63  O         42.6520   19.1560  -30.1160 O.2   141  ILE141     -0.2867
     64  CB        45.2650   18.2600  -30.3060 C.3   141  ILE141      0.0252
     65  CG1       46.6010   17.7420  -30.8340 C.3   141  ILE141      0.0019
     66  CG2       45.0970   17.9180  -28.8610 C.3   141  ILE141      0.0019
     67  CD1       47.7820   18.5960  -30.4970 C.3   141  ILE141      0.0001
     68  N         40.0130   18.4200  -28.0830 N.3   143  ARG143     -0.1245
     69  CA        40.1300   18.7330  -26.6750 C.3   143  ARG143      0.1563
     70  C         38.7990   19.0430  -26.0290 C.2   143  ARG143      0.2260
     71  O         37.8310   19.3870  -26.7050 O.2   143  ARG143     -0.2867
     72  CB        40.9640   19.9910  -26.5220 C.3   143  ARG143      0.0307
     73  CG        42.3930   19.9190  -26.9420 C.3   143  ARG143      0.0489
     74  CD        42.8130   21.2930  -27.4710 C.3   143  ARG143      0.2205
     75  NE        42.4630   21.4150  -28.8860 N.pl3 143  ARG143     -0.0865
     76  CZ        43.0340   22.2510  -29.7630 C.cat 143  ARG143      0.5346
     77  NH1       43.9580   23.1380  -29.3880 N.pl3 143  ARG143      0.1354
     78  NH2       42.6290   22.2240  -31.0290 N.pl3 143  ARG143      0.1354
     79  N         38.4110   19.7450  -19.2280 N.3   146  GLU146     -0.1245
     80  CA        39.3620   19.5280  -18.1460 C.3   146  GLU146      0.1567
     81  C         38.6890   19.8800  -16.8010 C.2   146  GLU146      0.2260
     82  O         39.3580   20.1720  -15.7980 O.2   146  GLU146     -0.2867
     83  CB        40.6320   20.3480  -18.3760 C.3   146  GLU146      0.0388
     84  CG        41.7990   19.5590  -18.9060 C.3   146  GLU146      0.1160
     85  CD        41.4130   18.4690  -19.9210 C.2   146  GLU146      0.3649
     86  OE1       40.6050   17.5740  -19.5660 O.co2 146  GLU146     -0.2457
     87  OE2       41.9700   18.4660  -21.0500 O.co2 146  GLU146     -0.2457
     88  N         39.4930   25.0710  -22.8180 N.3   196  GLU196     -0.1245
     89  CA        39.3080   24.7330  -21.4080 C.3   196  GLU196      0.1567
     90  C         38.1980   25.4530  -20.6500 C.2   196  GLU196      0.2260
     91  O         38.4530   26.0740  -19.6300 O.2   196  GLU196     -0.2867
     92  CB        40.6430   24.9200  -20.6950 C.3   196  GLU196      0.0388
     93  CG        41.7380   24.1540  -21.3540 C.3   196  GLU196      0.1160
     94  CD        43.0770   24.3340  -20.7110 C.2   196  GLU196      0.3649
     95  OE1       43.4150   25.4440  -20.2770 O.co2 196  GLU196     -0.2457
     96  OE2       43.8200   23.3480  -20.6520 O.co2 196  GLU196     -0.2457
     97  N         39.3310   29.8380  -21.9410 N.3   211  ARG211     -0.1245
     98  CA        40.7260   30.2530  -22.1230 C.3   211  ARG211      0.1563
     99  C         41.0840   30.5940  -23.5720 C.2   211  ARG211      0.2260
    100  O         41.1030   29.6980  -24.4280 O.2   211  ARG211     -0.2867
    101  CB        41.7000   29.1490  -21.6850 C.3   211  ARG211      0.0307
    102  CG        43.1620   29.5040  -21.9580 C.3   211  ARG211      0.0489
    103  CD        43.9360   28.4460  -22.7450 C.3   211  ARG211      0.2205
    104  NE        44.5070   27.4140  -21.8840 N.pl3 211  ARG211     -0.0865
    105  CZ        45.8060   27.1150  -21.7890 C.cat 211  ARG211      0.5346
    106  NH1       46.7230   27.7860  -22.4580 N.pl3 211  ARG211      0.1354
    107  NH2       46.1980   26.1600  -20.9740 N.pl3 211  ARG211      0.1354
    108  N         52.6650   30.8730  -13.3230 N.3   290  ARG290     -0.1245
    109  CA        51.4420   30.4290  -12.6540 C.3   290  ARG290      0.1563
    110  C         51.8250   30.3460  -11.1740 C.2   290  ARG290      0.2260
    111  O         51.9110   29.2680  -10.6260 O.2   290  ARG290     -0.2867
    112  CB        51.0100   29.0400  -13.1790 C.3   290  ARG290      0.0307
    113  CG        50.4160   29.0180  -14.6050 C.3   290  ARG290      0.0489
    114  CD        50.6500   27.6520  -15.3620 C.3   290  ARG290      0.2205
    115  NE        49.7470   27.4710  -16.5210 N.pl3 290  ARG290     -0.0865
    116  CZ        49.7720   26.4510  -17.3910 C.cat 290  ARG290      0.5346
    117  NH1       50.6900   25.4910  -17.3030 N.pl3 290  ARG290      0.1354
    118  NH2       48.8930   26.4150  -18.3850 N.pl3 290  ARG290      0.1354
    119  N         46.2580   25.2590  -13.1140 N.3   325  TYR325     -0.1241
    120  CA        44.8740   25.2260  -13.5800 C.3   325  TYR325      0.1605
    121  C         43.9190   25.4840  -12.4290 C.2   325  TYR325      0.2264
    122  O         44.2770   25.3300  -11.2580 O.2   325  TYR325     -0.2867
    123  CB        44.5390   23.8810  -14.2470 C.3   325  TYR325      0.0534
    124  CG        45.0140   23.7320  -15.6730 C.ar  325  TYR325     -0.0201
    125  CD1       46.1320   24.4190  -16.1400 C.ar  325  TYR325     -0.0009
    126  CD2       44.3360   22.8930  -16.5630 C.ar  325  TYR325     -0.0009
    127  CE1       46.5590   24.2770  -17.4530 C.ar  325  TYR325      0.0417
    128  CE2       44.7590   22.7420  -17.8840 C.ar  325  TYR325      0.0417
    129  CZ        45.8660   23.4370  -18.3140 C.ar  325  TYR325      0.1957
    130  OH        46.2710   23.3040  -19.6090 O.3   325  TYR325     -0.2866
@<TRIPOS>BOND
     1    60    61    1
     2    61    62    1
     3    61    64    1
     4    78    76    1
     5    65    67    1
     6    65    64    1
     7    62    63    2
     8    64    66    1
     9    76    77    1
    10    76    75    2
    11    75    74    1
    12    39    37    1
    13    68    69    1
    14    51    53   ar
    15    51    49   ar
    16    53    52   ar
    17    74    73    1
    18    36    37    2
    19    36    35    1
    20    37    38    1
    21    73    72    1
    22    71    70    2
    23    49    48   ar
    24    49    47   ar
    25    69    72    1
    26    69    70    1
    27    35    34    1
    28    52    50   ar
    29    48    46   ar
    30    32    31    2
    31    47    50   ar
    32    47    45   ar
    33    33    34    1
    34    33    30    1
    35    46    45   ar
    36    31    30    1
    37    45    44    1
    38   100    99    2
    39    30    29    1
    40    29    23   am
    41    99    98    1
    42    59    58    1
    43    58    55    1
    44    44    41    1
    45    88    89    1
    46    28    26   ar
    47   103   102    1
    48   103   104    1
    49    25    26    1
    50    25    22    1
    51    23    22    1
    52    23    24    2
    53   106   105    1
    54    40    41    1
    55    21    22    1
    56    98    97    1
    57    98   101    1
    58    42    41    1
    59    42    54   am
    60    42    43    2
    61    26    27   ar
    62    54    55    1
    63    55    56    1
    64   102   101    1
    65   104   105    2
    66   105   107    1
    67    57    56    2
    68    89    92    1
    69    89    90    1
    70    93    94    1
    71    93    92    1
    72    87    85   ar
    73    94    96   ar
    74    94    95   ar
    75    90    91    2
    76    85    86   ar
    77    85    84    1
    78   130   129    1
    79    79    80    1
    80    84    83    1
    81   118   116    1
    82    83    80    1
    83   129   128   ar
    84   129   127   ar
    85    20    18   ar
    86    80    81    1
    87   128   126   ar
    88    18    17    1
    89    18    19   ar
    90    17    16    1
    91    10     9    1
    92   127   125   ar
    93   116   117    1
    94   116   115    2
    95    81    82    2
    96    16    13    1
    97   126   124   ar
    98    11     9    1
    99   115   114    1
   100     9     8    2
   101   125   124   ar
   102   124   123    1
   103   114   113    1
   104     8     7    1
   105    13    12    1
   106    13    14    1
   107     7     6    1
   108    15    14    2
   109     5     6    1
   110     5     2    1
   111    12     3   am
   112   113   112    1
   113     4     3    2
   114     3     2    1
   115   123   120    1
   116     2     1    1
   117   120   119    1
   118   120   121    1
   119   108   109    1
   120   112   109    1
   121   109   110    1
   122   121   122    2
   123   110   111    2
