@<TRIPOS>MOLECULE
tmp/1ivdB04.pdb
 152 143 0 0 0
SMALL
GASTEIGER

@<TRIPOS>ATOM
      1  N         47.6020  -13.0610  -15.5550 N.3    37  ARG37      -0.1231
      2  CA        47.5530  -13.6150  -16.9040 C.3    37  ARG37       0.1694
      3  C         46.1480  -14.1280  -17.1110 C.2    37  ARG37       0.2591
      4  O         45.3510  -14.1140  -16.1740 O.2    37  ARG37      -0.2718
      5  CB        48.5980  -14.7170  -17.1750 C.3    37  ARG37       0.0321
      6  CG        49.8180  -14.2130  -17.9940 C.3    37  ARG37       0.0489
      7  CD        50.3070  -15.1760  -19.0770 C.3    37  ARG37       0.2205
      8  NE        49.3060  -15.3520  -20.1340 N.pl3  37  ARG37      -0.0865
      9  CZ        48.9160  -16.5260  -20.6380 C.cat  37  ARG37       0.5346
     10  NH1       49.4650  -17.6640  -20.1990 N.pl3  37  ARG37       0.1354
     11  NH2       47.9850  -16.5650  -21.5970 N.pl3  37  ARG37       0.1354
     12  N         45.8180  -14.4430  -18.3660 N.am   38  GLU38      -0.1979
     13  CA        44.5240  -15.0170  -18.7450 C.3    38  GLU38       0.1602
     14  C         43.3260  -14.2860  -18.1210 C.2    38  GLU38       0.2287
     15  O         42.4260  -14.9060  -17.5250 O.2    38  GLU38      -0.2864
     16  CB        44.5480  -16.5120  -18.3690 C.3    38  GLU38       0.0415
     17  CG        45.7410  -17.2860  -18.9800 C.3    38  GLU38       0.1163
     18  CD        46.5740  -18.0400  -17.9540 C.2    38  GLU38       0.3649
     19  OE1       46.0150  -18.5410  -16.9590 O.co2  38  GLU38      -0.2457
     20  OE2       47.8070  -18.1360  -18.1440 O.co2  38  GLU38      -0.2457
     21  N         51.6540  -21.9930  -16.3250 N.3    70  ASP70      -0.1225
     22  CA        50.2260  -21.7290  -16.1510 C.3    70  ASP70       0.1805
     23  C         49.5420  -22.2670  -14.8980 C.2    70  ASP70       0.2597
     24  O         48.5750  -21.6780  -14.4290 O.2    70  ASP70      -0.2718
     25  CB        49.4560  -22.2410  -17.3740 C.3    70  ASP70       0.1424
     26  CG        49.9840  -21.6680  -18.6840 C.2    70  ASP70       0.3668
     27  OD1       51.0380  -22.1670  -19.1690 O.co2  70  ASP70      -0.2456
     28  OD2       49.3380  -20.7240  -19.2170 O.co2  70  ASP70      -0.2456
     29  N         49.9920  -23.4030  -14.3860 N.am   71  ARG71      -0.1979
     30  CA        49.3420  -23.9920  -13.2190 C.3    71  ARG71       0.1597
     31  C         50.2620  -24.2570  -12.0390 C.2    71  ARG71       0.2287
     32  O         51.4110  -24.6770  -12.1990 O.2    71  ARG71      -0.2864
     33  CB        48.7070  -25.3210  -13.6050 C.3    71  ARG71       0.0334
     34  CG        47.5970  -25.2780  -14.6430 C.3    71  ARG71       0.0492
     35  CD        47.4540  -26.6400  -15.2540 C.3    71  ARG71       0.2205
     36  NE        48.6910  -27.0130  -15.9320 N.pl3  71  ARG71      -0.0865
     37  CZ        48.8020  -27.1870  -17.2490 C.cat  71  ARG71       0.5346
     38  NH1       47.7320  -27.0570  -18.0380 N.pl3  71  ARG71       0.1354
     39  NH2       49.9720  -27.5230  -17.7850 N.pl3  71  ARG71       0.1354
     40  N         43.0150  -22.2470  -11.6750 N.3    97  TRP97      -0.1227
     41  CA        44.0250  -22.0350  -12.6860 C.3    97  TRP97       0.1737
     42  C         43.3480  -22.0320  -14.0680 C.2    97  TRP97       0.2596
     43  O         43.9950  -22.1680  -15.1070 O.2    97  TRP97      -0.2718
     44  CB        45.2350  -22.9620  -12.5370 C.3    97  TRP97       0.0564
     45  CG        45.0440  -24.3870  -12.1660 C.ar   97  TRP97       0.0003
     46  CD1       45.6480  -25.0570  -11.0970 C.ar   97  TRP97       0.0946
     47  CD2       44.4230  -25.3980  -12.9550 C.ar   97  TRP97       0.0152
     48  NE1       45.4550  -26.4250  -11.2150 N.ar   97  TRP97      -0.2442
     49  CE2       44.7070  -26.6590  -12.3420 C.ar   97  TRP97       0.0810
     50  CE3       43.6590  -25.3780  -14.1270 C.ar   97  TRP97       0.0012
     51  CZ2       44.2450  -27.8640  -12.8760 C.ar   97  TRP97       0.0191
     52  CZ3       43.1980  -26.5860  -14.6480 C.ar   97  TRP97       0.0001
     53  CH2       43.4900  -27.8040  -14.0260 C.ar   97  TRP97       0.0015
     54  N         42.0630  -21.6660  -14.0330 N.am   98  SER98      -0.1952
     55  CA        41.1550  -21.5920  -15.1800 C.3    98  SER98       0.1924
     56  C         39.8080  -21.0980  -14.6230 C.2    98  SER98       0.2314
     57  O         39.5910  -21.1740  -13.4210 O.2    98  SER98      -0.2863
     58  CB        40.9720  -22.9670  -15.8050 C.3    98  SER98       0.2116
     59  OG        40.1080  -22.9170  -16.9480 O.3    98  SER98      -0.2180
     60  N         44.1500  -32.7610  -17.7510 N.3   141  ILE141     -0.1245
     61  CA        43.8540  -31.3520  -17.5980 C.3   141  ILE141      0.1561
     62  C         42.4840  -30.7900  -17.9800 C.2   141  ILE141      0.2260
     63  O         42.1880  -30.5390  -19.1450 O.2   141  ILE141     -0.2867
     64  CB        44.9960  -30.5290  -18.1910 C.3   141  ILE141      0.0252
     65  CG1       46.3300  -31.1550  -17.7490 C.3   141  ILE141      0.0019
     66  CG2       44.9430  -29.1280  -17.6550 C.3   141  ILE141      0.0019
     67  CD1       47.6180  -30.6020  -18.3940 C.3   141  ILE141      0.0001
     68  N         40.1770  -27.9520  -18.3770 N.3   143  ARG143     -0.1245
     69  CA        40.3620  -26.5270  -18.6290 C.3   143  ARG143      0.1563
     70  C         39.0320  -25.9590  -19.1130 C.2   143  ARG143      0.2260
     71  O         38.1610  -26.7220  -19.5590 O.2   143  ARG143     -0.2867
     72  CB        41.4370  -26.2840  -19.7140 C.3   143  ARG143      0.0307
     73  CG        42.3490  -27.4940  -20.1580 C.3   143  ARG143      0.0489
     74  CD        42.1030  -27.8590  -21.6460 C.3   143  ARG143      0.2205
     75  NE        43.3270  -28.1520  -22.3920 N.pl3 143  ARG143     -0.0865
     76  CZ        43.6360  -29.3350  -22.9370 C.cat 143  ARG143      0.5346
     77  NH1       42.8200  -30.3860  -22.8460 N.pl3 143  ARG143      0.1354
     78  NH2       44.7870  -29.4790  -23.5620 N.pl3 143  ARG143      0.1354
     79  N         38.1140  -19.0080  -19.6730 N.3   146  GLU146     -0.1245
     80  CA        39.0200  -17.8910  -19.3770 C.3   146  GLU146      0.1567
     81  C         38.3600  -16.7030  -20.0700 C.2   146  GLU146      0.2260
     82  O         39.0480  -15.8890  -20.7140 O.2   146  GLU146     -0.2867
     83  CB        40.4340  -18.0910  -19.9810 C.3   146  GLU146      0.0388
     84  CG        41.0220  -19.4940  -19.9180 C.3   146  GLU146      0.1160
     85  CD        41.2370  -20.0370  -18.5120 C.2   146  GLU146      0.3649
     86  OE1       40.3910  -19.7310  -17.6330 O.co2 146  GLU146     -0.2457
     87  OE2       42.2330  -20.8050  -18.3060 O.co2 146  GLU146     -0.2457
     88  N         45.6550  -31.2320  -25.8960 N.3   165  ALA165     -0.1245
     89  CA        45.7720  -29.8950  -26.5080 C.3   165  ALA165      0.1562
     90  C         45.8700  -30.0440  -28.0010 C.2   165  ALA165      0.2260
     91  O         44.9960  -29.5960  -28.7440 O.2   165  ALA165     -0.2867
     92  CB        47.0030  -29.1740  -25.9780 C.3   165  ALA165      0.0290
     93  N         38.3950  -25.1950  -27.4680 N.3   195  GLU195     -0.1231
     94  CA        39.2210  -24.8420  -26.3410 C.3   195  GLU195      0.1699
     95  C         39.2790  -23.3370  -26.2970 C.2   195  GLU195      0.2592
     96  O         39.5610  -22.7090  -27.3180 O.2   195  GLU195     -0.2718
     97  CB        40.6340  -25.3860  -26.5800 C.3   195  GLU195      0.0402
     98  CG        41.0860  -26.4770  -25.6430 C.3   195  GLU195      0.1161
     99  CD        42.5970  -26.4820  -25.4590 C.2   195  GLU195      0.3649
    100  OE1       43.1370  -25.4760  -24.9240 O.co2 195  GLU195     -0.2457
    101  OE2       43.2350  -27.4910  -25.8210 O.co2 195  GLU195     -0.2457
    102  N         39.0610  -22.7780  -25.1050 N.am  196  GLU196     -0.1979
    103  CA        39.0750  -21.3370  -24.8470 C.3   196  GLU196      0.1602
    104  C         37.9720  -20.5940  -25.5680 C.2   196  GLU196      0.2287
    105  O         38.1460  -19.4900  -26.0710 O.2   196  GLU196     -0.2864
    106  CB        40.4510  -20.7360  -25.1450 C.3   196  GLU196      0.0415
    107  CG        41.5180  -21.4490  -24.3480 C.3   196  GLU196      0.1163
    108  CD        42.7940  -20.7040  -24.2490 C.2   196  GLU196      0.3649
    109  OE1       43.1750  -19.9760  -25.1950 O.co2 196  GLU196     -0.2457
    110  OE2       43.4320  -20.8620  -23.1960 O.co2 196  GLU196     -0.2457
    111  N         39.3120  -21.6360  -29.8350 N.3   211  ARG211     -0.1245
    112  CA        40.6820  -21.8150  -30.2650 C.3   211  ARG211      0.1563
    113  C         40.8370  -23.3100  -30.6370 C.2   211  ARG211      0.2260
    114  O         39.9770  -24.1510  -30.2840 O.2   211  ARG211     -0.2867
    115  CB        41.5630  -21.4530  -29.0860 C.3   211  ARG211      0.0307
    116  CG        42.9280  -22.0850  -29.0200 C.3   211  ARG211      0.0489
    117  CD        43.4400  -21.9460  -27.6030 C.3   211  ARG211      0.2205
    118  NE        44.8580  -21.6340  -27.5570 N.pl3 211  ARG211     -0.0865
    119  CZ        45.6260  -21.7670  -26.4760 C.cat 211  ARG211      0.5346
    120  NH1       45.1170  -22.2640  -25.3440 N.pl3 211  ARG211      0.1354
    121  NH2       46.9250  -21.4470  -26.5430 N.pl3 211  ARG211      0.1354
    122  N         44.2250  -25.8350  -30.7920 N.3   213  ASN213     -0.1240
    123  CA        45.6440  -26.0580  -30.6020 C.3   213  ASN213      0.1653
    124  C         46.1780  -27.2780  -31.3170 C.2   213  ASN213      0.2266
    125  O         47.3040  -27.6960  -31.0640 O.2   213  ASN213     -0.2867
    126  CB        45.9480  -26.1570  -29.1120 C.3   213  ASN213      0.1155
    127  CG        45.7300  -24.8480  -28.3910 C.2   213  ASN213      0.2627
    128  OD1       44.5950  -24.4480  -28.1350 O.2   213  ASN213     -0.2716
    129  ND2       46.8190  -24.1580  -28.0780 N.am  213  ASN213     -0.0877
    130  N         52.6030  -13.5530  -30.9890 N.3   290  ARG290     -0.1245
    131  CA        51.3870  -12.8940  -30.5000 C.3   290  ARG290      0.1563
    132  C         51.7080  -11.4320  -30.1750 C.2   290  ARG290      0.2260
    133  O         51.8270  -11.0640  -29.0090 O.2   290  ARG290     -0.2867
    134  CB        50.8280  -13.6030  -29.2570 C.3   290  ARG290      0.0307
    135  CG        50.4050  -15.0530  -29.4680 C.3   290  ARG290      0.0489
    136  CD        49.5700  -15.5810  -28.2730 C.3   290  ARG290      0.2205
    137  NE        49.3830  -17.0400  -28.2710 N.pl3 290  ARG290     -0.0865
    138  CZ        49.0880  -17.7600  -27.1890 C.cat 290  ARG290      0.5346
    139  NH1       48.9140  -17.1710  -26.0130 N.pl3 290  ARG290      0.1354
    140  NH2       48.9560  -19.0720  -27.2800 N.pl3 290  ARG290      0.1354
    141  N         46.1120  -12.8690  -25.2040 N.3   325  TYR325     -0.1241
    142  CA        44.7490  -13.3970  -25.2420 C.3   325  TYR325      0.1605
    143  C         43.7850  -12.2510  -25.4660 C.2   325  TYR325      0.2264
    144  O         44.1650  -11.0910  -25.4390 O.2   325  TYR325     -0.2867
    145  CB        44.3790  -14.0450  -23.9010 C.3   325  TYR325      0.0534
    146  CG        44.7720  -15.4880  -23.7540 C.ar  325  TYR325     -0.0201
    147  CD1       45.7890  -16.0490  -24.5440 C.ar  325  TYR325     -0.0009
    148  CD2       44.1060  -16.3180  -22.8320 C.ar  325  TYR325     -0.0009
    149  CE1       46.1300  -17.4180  -24.4280 C.ar  325  TYR325      0.0417
    150  CE2       44.4360  -17.6800  -22.6990 C.ar  325  TYR325      0.0417
    151  CZ        45.4440  -18.2240  -23.5040 C.ar  325  TYR325      0.1957
    152  OH        45.7400  -19.5620  -23.4140 O.3   325  TYR325     -0.2866
@<TRIPOS>BOND
     1   124   125    2
     2   124   123    1
     3   130   131    1
     4   122   123    1
     5   113   114    2
     6   113   112    1
     7   123   126    1
     8   131   132    1
     9   131   134    1
    10   112   111    1
    11   112   115    1
    12   132   133    2
    13   135   134    1
    14   135   136    1
    15   126   127    1
    16   115   116    1
    17   116   117    1
    18    91    90    2
    19   127   128    2
    20   127   129   am
    21   136   137    1
    22   137   138    2
    23    90    89    1
    24   117   118    1
    25   118   119    2
    26    93    94    1
    27    96    95    2
    28   140   138    1
    29   138   139    1
    30    97    94    1
    31    97    98    1
    32   121   119    1
    33    89    92    1
    34    89    88    1
    35   119   120    1
    36    94    95    1
    37    95   102   am
    38   105   104    2
    39   101    99   ar
    40    98    99    1
    41   104   103    1
    42   143   144    2
    43   143   142    1
    44    99   100   ar
    45   142   141    1
    46   142   145    1
    47   109   108   ar
    48   106   103    1
    49   106   107    1
    50   102   103    1
    51   147   149   ar
    52   147   146   ar
    53   149   151   ar
    54   107   108    1
    55   108   110   ar
    56   145   146    1
    57   146   148   ar
    58    78    76    1
    59   151   152    1
    60   151   150   ar
    61    76    77    1
    62    76    75    2
    63   148   150   ar
    64    75    74    1
    65    74    73    1
    66    11     9    1
    67    82    81    2
    68     9    10    1
    69     9     8    2
    70    73    72    1
    71     8     7    1
    72    81    80    1
    73    83    84    1
    74    83    80    1
    75    84    85    1
    76    72    69    1
    77    79    80    1
    78    71    70    2
    79    28    26   ar
    80    27    26   ar
    81    63    62    2
    82    70    69    1
    83     7     6    1
    84    17    16    1
    85    17    18    1
    86    13    16    1
    87    13    12    1
    88    13    14    1
    89    26    25    1
    90    69    68    1
    91    85    87   ar
    92    85    86   ar
    93    67    65    1
    94    12     3   am
    95    64    65    1
    96    64    66    1
    97    64    61    1
    98    20    18   ar
    99    14    15    2
   100    38    37    1
   101     6     5    1
   102    62    61    1
   103    18    19   ar
   104    39    37    1
   105    60    61    1
   106    25    22    1
   107    37    36    2
   108     5     2    1
   109     3     2    1
   110     3     4    2
   111    59    58    1
   112     2     1    1
   113    21    22    1
   114    22    23    1
   115    36    35    1
   116    58    55    1
   117    35    34    1
   118    55    56    1
   119    55    54    1
   120    43    42    2
   121    23    24    2
   122    23    29   am
   123    52    50   ar
   124    52    53   ar
   125    34    33    1
   126    56    57    2
   127    29    30    1
   128    50    47   ar
   129    42    54   am
   130    42    41    1
   131    53    51   ar
   132    33    30    1
   133    30    31    1
   134    47    49   ar
   135    47    45   ar
   136    51    49   ar
   137    41    44    1
   138    41    40    1
   139    44    45    1
   140    49    48   ar
   141    32    31    2
   142    45    46   ar
   143    48    46   ar
