@<TRIPOS>MOLECULE
tmp/1ivfB04.pdb
 163 153 0 0 0
SMALL
GASTEIGER

@<TRIPOS>ATOM
      1  N         47.4500  -13.2830  -15.3440 N.3    37  ARG37      -0.1231
      2  CA        47.3960  -13.7380  -16.7270 C.3    37  ARG37       0.1694
      3  C         45.9980  -14.2660  -17.0050 C.2    37  ARG37       0.2591
      4  O         45.1670  -14.3670  -16.1060 O.2    37  ARG37      -0.2718
      5  CB        48.4810  -14.7650  -17.1060 C.3    37  ARG37       0.0321
      6  CG        49.6650  -14.1470  -17.9030 C.3    37  ARG37       0.0489
      7  CD        50.2270  -15.0590  -18.9870 C.3    37  ARG37       0.2205
      8  NE        49.2250  -15.3230  -20.0240 N.pl3  37  ARG37      -0.0865
      9  CZ        49.2120  -16.3730  -20.8490 C.cat  37  ARG37       0.5346
     10  NH1       50.1570  -17.3140  -20.7850 N.pl3  37  ARG37       0.1354
     11  NH2       48.2350  -16.4710  -21.7460 N.pl3  37  ARG37       0.1354
     12  N         45.7390  -14.5750  -18.2670 N.am   38  GLU38      -0.1979
     13  CA        44.4300  -15.0360  -18.6870 C.3    38  GLU38       0.1602
     14  C         43.3360  -14.2120  -18.0200 C.2    38  GLU38       0.2287
     15  O         42.5550  -14.7370  -17.2200 O.2    38  GLU38      -0.2864
     16  CB        44.2240  -16.5330  -18.3940 C.3    38  GLU38       0.0415
     17  CG        45.2390  -17.4560  -19.0400 C.3    38  GLU38       0.1163
     18  CD        46.4830  -17.6050  -18.2030 C.2    38  GLU38       0.3649
     19  OE1       46.3880  -17.3830  -16.9760 O.co2  38  GLU38      -0.2457
     20  OE2       47.5470  -17.9710  -18.7560 O.co2  38  GLU38      -0.2457
     21  N         51.2010  -22.0240  -16.2890 N.3    70  ASP70      -0.1225
     22  CA        49.7710  -21.8560  -16.1940 C.3    70  ASP70       0.1805
     23  C         49.1680  -22.5760  -15.0120 C.2    70  ASP70       0.2597
     24  O         48.0760  -22.2140  -14.5760 O.2    70  ASP70      -0.2718
     25  CB        49.1270  -22.3380  -17.4970 C.3    70  ASP70       0.1424
     26  CG        49.8670  -21.8280  -18.7280 C.2    70  ASP70       0.3668
     27  OD1       49.9500  -20.5980  -18.9150 O.co2  70  ASP70      -0.2456
     28  OD2       50.3870  -22.6680  -19.4900 O.co2  70  ASP70      -0.2456
     29  N         49.9090  -23.5010  -14.4060 N.am   71  ARG71      -0.1979
     30  CA        49.3170  -24.2840  -13.3200 C.3    71  ARG71       0.1597
     31  C         50.0590  -24.5530  -12.0260 C.2    71  ARG71       0.2287
     32  O         50.9980  -25.3590  -11.9830 O.2    71  ARG71      -0.2864
     33  CB        48.8490  -25.6280  -13.8760 C.3    71  ARG71       0.0334
     34  CG        47.5410  -25.6040  -14.6090 C.3    71  ARG71       0.0492
     35  CD        47.3710  -26.8840  -15.3990 C.3    71  ARG71       0.2205
     36  NE        47.7530  -26.6330  -16.7850 N.pl3  71  ARG71      -0.0865
     37  CZ        48.8210  -27.1380  -17.3960 C.cat  71  ARG71       0.5346
     38  NH1       49.6430  -27.9590  -16.7540 N.pl3  71  ARG71       0.1354
     39  NH2       49.0860  -26.7660  -18.6450 N.pl3  71  ARG71       0.1354
     40  N         47.1740  -20.2760   -7.9010 N.3    75  ARG75      -0.1245
     41  CA        46.4270  -19.3820   -8.7780 C.3    75  ARG75       0.1563
     42  C         44.9740  -19.3440   -8.2780 C.2    75  ARG75       0.2260
     43  O         44.3820  -20.4030   -8.0010 O.2    75  ARG75      -0.2867
     44  CB        46.4900  -19.8600  -10.2350 C.3    75  ARG75       0.0307
     45  CG        47.9230  -20.2220  -10.6870 C.3    75  ARG75       0.0489
     46  CD        48.1220  -20.0120  -12.1640 C.3    75  ARG75       0.2205
     47  NE        47.8860  -18.6160  -12.5240 N.pl3  75  ARG75      -0.0865
     48  CZ        47.6250  -18.1780  -13.7550 C.cat  75  ARG75       0.5346
     49  NH1       47.5570  -19.0120  -14.7900 N.pl3  75  ARG75       0.1354
     50  NH2       47.4320  -16.8920  -13.9510 N.pl3  75  ARG75       0.1354
     51  N         43.0480  -22.0880  -11.5620 N.3    97  TRP97      -0.1227
     52  CA        44.0730  -21.9060  -12.5840 C.3    97  TRP97       0.1737
     53  C         43.4060  -21.9820  -13.9840 C.2    97  TRP97       0.2596
     54  O         44.0820  -22.0830  -15.0180 O.2    97  TRP97      -0.2718
     55  CB        45.3100  -22.8300  -12.4480 C.3    97  TRP97       0.0564
     56  CG        45.1600  -24.3420  -12.2470 C.ar   97  TRP97       0.0003
     57  CD1       45.7680  -25.0760  -11.2720 C.ar   97  TRP97       0.0946
     58  CD2       44.4770  -25.2960  -13.0860 C.ar   97  TRP97       0.0152
     59  NE1       45.5190  -26.4170  -11.4490 N.ar   97  TRP97      -0.2442
     60  CE2       44.7310  -26.5830  -12.5510 C.ar   97  TRP97       0.0810
     61  CE3       43.6880  -25.1940  -14.2420 C.ar   97  TRP97       0.0012
     62  CZ2       44.2240  -27.7570  -13.1340 C.ar   97  TRP97       0.0191
     63  CZ3       43.1840  -26.3720  -14.8220 C.ar   97  TRP97       0.0001
     64  CH2       43.4570  -27.6320  -14.2610 C.ar   97  TRP97       0.0015
     65  N         42.0720  -21.9030  -13.9820 N.am   98  SER98      -0.1952
     66  CA        41.2440  -21.8670  -15.1860 C.3    98  SER98       0.1924
     67  C         39.8450  -21.4950  -14.7250 C.2    98  SER98       0.2314
     68  O         39.2920  -22.2010  -13.8860 O.2    98  SER98      -0.2863
     69  CB        41.2110  -23.2230  -15.8910 C.3    98  SER98       0.2116
     70  OG        40.4420  -23.1480  -17.0860 O.3    98  SER98      -0.2180
     71  N         44.1340  -32.2970  -17.7990 N.3   141  ILE141     -0.1245
     72  CA        43.9710  -30.8420  -17.6420 C.3   141  ILE141      0.1561
     73  C         42.5860  -30.2400  -17.9380 C.2   141  ILE141      0.2260
     74  O         42.4350  -29.3830  -18.8140 O.2   141  ILE141     -0.2867
     75  CB        45.0330  -30.0630  -18.4170 C.3   141  ILE141      0.0252
     76  CG1       46.3960  -30.7180  -18.2300 C.3   141  ILE141      0.0019
     77  CG2       45.1000  -28.6390  -17.9260 C.3   141  ILE141      0.0019
     78  CD1       47.5400  -29.9270  -18.8160 C.3   141  ILE141      0.0001
     79  N         39.9350  -28.0050  -18.4100 N.3   143  ARG143     -0.1245
     80  CA        40.0540  -26.5610  -18.4820 C.3   143  ARG143      0.1563
     81  C         38.7950  -25.8980  -19.0030 C.2   143  ARG143      0.2260
     82  O         37.9960  -26.5440  -19.6610 O.2   143  ARG143     -0.2867
     83  CB        41.2390  -26.2360  -19.3650 C.3   143  ARG143      0.0307
     84  CG        41.3340  -27.0900  -20.6270 C.3   143  ARG143      0.0489
     85  CD        42.8040  -27.2980  -20.9630 C.3   143  ARG143      0.2205
     86  NE        43.0790  -28.0510  -22.1910 N.pl3 143  ARG143     -0.0865
     87  CZ        42.7570  -29.3250  -22.4060 C.cat 143  ARG143      0.5346
     88  NH1       42.1150  -30.0430  -21.4820 N.pl3 143  ARG143      0.1354
     89  NH2       43.1260  -29.9030  -23.5460 N.pl3 143  ARG143      0.1354
     90  N         37.9300  -19.2420  -19.7580 N.3   146  GLU146     -0.1245
     91  CA        38.9100  -18.1910  -19.4170 C.3   146  GLU146      0.1567
     92  C         38.3290  -16.8280  -19.7990 C.2   146  GLU146      0.2260
     93  O         39.0760  -15.8920  -20.0430 O.2   146  GLU146     -0.2867
     94  CB        40.3040  -18.3650  -20.0760 C.3   146  GLU146      0.0388
     95  CG        41.0040  -19.7210  -19.9100 C.3   146  GLU146      0.1160
     96  CD        41.1900  -20.1760  -18.4600 C.2   146  GLU146      0.3649
     97  OE1       40.1840  -20.2840  -17.7490 O.co2 146  GLU146     -0.2457
     98  OE2       42.3250  -20.4930  -18.0340 O.co2 146  GLU146     -0.2457
     99  N         45.9070  -31.3090  -25.6260 N.3   165  ALA165     -0.1245
    100  CA        46.0590  -29.9280  -26.1070 C.3   165  ALA165      0.1562
    101  C         46.2030  -29.9000  -27.6160 C.2   165  ALA165      0.2260
    102  O         45.5910  -29.0680  -28.2890 O.2   165  ALA165     -0.2867
    103  CB        47.2940  -29.2760  -25.4680 C.3   165  ALA165      0.0290
    104  N         38.9840  -25.2130  -27.4010 N.3   195  GLU195     -0.1231
    105  CA        39.6070  -24.7670  -26.1700 C.3   195  GLU195      0.1699
    106  C         39.2380  -23.3020  -26.0010 C.2   195  GLU195      0.2592
    107  O         39.0330  -22.5800  -26.9830 O.2   195  GLU195     -0.2718
    108  CB        41.1070  -24.9080  -26.2270 C.3   195  GLU195      0.0402
    109  CG        41.5940  -26.3040  -26.3610 C.3   195  GLU195      0.1161
    110  CD        43.0370  -26.4160  -25.9490 C.2   195  GLU195      0.3649
    111  OE1       43.8390  -25.5270  -26.3050 O.co2 195  GLU195     -0.2457
    112  OE2       43.3820  -27.3850  -25.2650 O.co2 195  GLU195     -0.2457
    113  N         39.1250  -22.8930  -24.7430 N.am  196  GLU196     -0.1979
    114  CA        38.7740  -21.5360  -24.3340 C.3   196  GLU196      0.1602
    115  C         37.8380  -20.7060  -25.2360 C.2   196  GLU196      0.2287
    116  O         38.2570  -19.7580  -25.8830 O.2   196  GLU196     -0.2864
    117  CB        40.0480  -20.7740  -23.9230 C.3   196  GLU196      0.0415
    118  CG        41.0740  -20.6190  -24.9850 C.3   196  GLU196      0.1163
    119  CD        42.4690  -20.5540  -24.4320 C.2   196  GLU196      0.3649
    120  OE1       42.7530  -21.1310  -23.3780 O.co2 196  GLU196     -0.2457
    121  OE2       43.3170  -19.9430  -25.0760 O.co2 196  GLU196     -0.2457
    122  N         39.2530  -21.7580  -29.7470 N.3   211  ARG211     -0.1245
    123  CA        40.6030  -22.0380  -30.2100 C.3   211  ARG211      0.1563
    124  C         40.8310  -23.5130  -30.5540 C.2   211  ARG211      0.2260
    125  O         40.5840  -24.3920  -29.7250 O.2   211  ARG211     -0.2867
    126  CB        41.5840  -21.5970  -29.1100 C.3   211  ARG211      0.0307
    127  CG        42.9370  -22.3040  -29.0350 C.3   211  ARG211      0.0489
    128  CD        43.7860  -21.6790  -27.9140 C.3   211  ARG211      0.2205
    129  NE        45.1130  -22.2770  -27.7920 N.pl3 211  ARG211     -0.0865
    130  CZ        46.0230  -21.9320  -26.8790 C.cat 211  ARG211      0.5346
    131  NH1       45.7820  -20.9880  -25.9800 N.pl3 211  ARG211      0.1354
    132  NH2       47.2100  -22.5020  -26.8990 N.pl3 211  ARG211      0.1354
    133  N         43.5640  -25.8180  -31.1060 N.3   213  ASN213     -0.1240
    134  CA        44.9710  -25.9180  -30.7340 C.3   213  ASN213      0.1653
    135  C         45.6540  -27.1380  -31.3600 C.2   213  ASN213      0.2266
    136  O         46.8400  -27.4360  -31.1030 O.2   213  ASN213     -0.2867
    137  CB        45.0110  -26.0560  -29.2260 C.3   213  ASN213      0.1155
    138  CG        46.3340  -25.6940  -28.6430 C.2   213  ASN213      0.2627
    139  OD1       46.8730  -24.6290  -28.9320 O.2   213  ASN213     -0.2716
    140  ND2       46.8500  -26.5480  -27.7690 N.am  213  ASN213     -0.0877
    141  N         52.3330  -13.2270  -30.7600 N.3   290  ARG290     -0.1245
    142  CA        51.2060  -12.4150  -30.2680 C.3   290  ARG290      0.1563
    143  C         51.7610  -10.9980  -30.1530 C.2   290  ARG290      0.2260
    144  O         52.4240  -10.6660  -29.1650 O.2   290  ARG290     -0.2867
    145  CB        50.7730  -12.8850  -28.8810 C.3   290  ARG290      0.0307
    146  CG        50.0670  -14.2190  -28.8880 C.3   290  ARG290      0.0489
    147  CD        50.4140  -15.0500  -27.6610 C.3   290  ARG290      0.2205
    148  NE        49.5340  -16.2100  -27.6100 N.pl3 290  ARG290     -0.0865
    149  CZ        49.5180  -17.1390  -26.6590 C.cat 290  ARG290      0.5346
    150  NH1       50.3540  -17.0910  -25.6270 N.pl3 290  ARG290      0.1354
    151  NH2       48.6170  -18.1080  -26.7330 N.pl3 290  ARG290      0.1354
    152  N         46.0570  -13.1000  -25.2930 N.3   325  TYR325     -0.1241
    153  CA        44.6800  -13.5930  -25.3510 C.3   325  TYR325      0.1605
    154  C         43.7160  -12.4380  -25.5910 C.2   325  TYR325      0.2264
    155  O         44.1160  -11.2710  -25.5810 O.2   325  TYR325     -0.2867
    156  CB        44.2780  -14.2230  -24.0230 C.3   325  TYR325      0.0534
    157  CG        44.5270  -15.6970  -23.8640 C.ar  325  TYR325     -0.0201
    158  CD1       45.5650  -16.3510  -24.5510 C.ar  325  TYR325     -0.0009
    159  CD2       43.7590  -16.4410  -22.9520 C.ar  325  TYR325     -0.0009
    160  CE1       45.8380  -17.7120  -24.3200 C.ar  325  TYR325      0.0417
    161  CE2       44.0230  -17.8000  -22.7190 C.ar  325  TYR325      0.0417
    162  CZ        45.0610  -18.4270  -23.4030 C.ar  325  TYR325      0.1957
    163  OH        45.2800  -19.7700  -23.1860 O.3   325  TYR325     -0.2866
@<TRIPOS>BOND
     1   135   136    2
     2   135   134    1
     3   133   134    1
     4   141   142    1
     5   134   137    1
     6   124   123    1
     7   124   125    2
     8   142   143    1
     9   142   145    1
    10   123   122    1
    11   123   126    1
    12   143   144    2
    13   137   138    1
    14   126   127    1
    15   127   128    1
    16   139   138    2
    17   146   145    1
    18   146   147    1
    19   138   140   am
    20   102   101    2
    21   128   129    1
    22   129   130    2
    23   147   148    1
    24   101   100    1
    25   148   149    2
    26   104   105    1
    27   107   106    2
    28   132   130    1
    29   130   131    1
    30   151   149    1
    31   149   150    1
    32   109   108    1
    33   109   110    1
    34   111   110   ar
    35   108   105    1
    36   105   106    1
    37   100    99    1
    38   100   103    1
    39   106   113   am
    40   110   112   ar
    41   116   115    2
    42   154   155    2
    43   154   153    1
    44   153   152    1
    45   153   156    1
    46   115   114    1
    47   121   119   ar
    48   118   119    1
    49   118   117    1
    50   113   114    1
    51   158   160   ar
    52   158   157   ar
    53   119   120   ar
    54   114   117    1
    55   160   162   ar
    56   156   157    1
    57   157   159   ar
    58    89    87    1
    59   162   163    1
    60   162   161   ar
    61   159   161   ar
    62    87    86    2
    63    87    88    1
    64    86    85    1
    65    11     9    1
    66    85    84    1
    67     9    10    1
    68     9     8    2
    69    84    83    1
    70    94    95    1
    71    94    91    1
    72    93    92    2
    73     8     7    1
    74    95    96    1
    75    92    91    1
    76    90    91    1
    77    82    81    2
    78    28    26   ar
    79    83    80    1
    80    17    16    1
    81    17    18    1
    82    81    80    1
    83     7     6    1
    84    27    26   ar
    85    78    76    1
    86    74    73    2
    87    20    18   ar
    88    26    25    1
    89    13    16    1
    90    13    12    1
    91    13    14    1
    92    39    37    1
    93    80    79    1
    94    96    98   ar
    95    96    97   ar
    96    75    76    1
    97    75    77    1
    98    75    72    1
    99    12     3   am
   100    18    19   ar
   101    14    15    2
   102    73    72    1
   103     6     5    1
   104    71    72    1
   105    25    22    1
   106    37    36    2
   107    37    38    1
   108     5     2    1
   109    70    69    1
   110     3     2    1
   111     3     4    2
   112    36    35    1
   113     2     1    1
   114    21    22    1
   115    22    23    1
   116    69    66    1
   117    35    34    1
   118    66    67    1
   119    66    65    1
   120    54    53    2
   121    23    24    2
   122    23    29   am
   123    63    64   ar
   124    63    61   ar
   125    49    48    1
   126    67    68    2
   127    34    33    1
   128    29    30    1
   129    64    62   ar
   130    61    58   ar
   131    53    65   am
   132    53    52    1
   133    50    48    1
   134    33    30    1
   135    48    47    2
   136    30    31    1
   137    62    60   ar
   138    58    60   ar
   139    58    56   ar
   140    52    55    1
   141    52    51    1
   142    60    59   ar
   143    47    46    1
   144    55    56    1
   145    56    57   ar
   146    46    45    1
   147    31    32    2
   148    59    57   ar
   149    45    44    1
   150    44    41    1
   151    41    42    1
   152    41    40    1
   153    42    43    2
