@<TRIPOS>MOLECULE
tmp/1ivfB00.pdb
 117 112 0 0 0
SMALL
GASTEIGER

@<TRIPOS>ATOM
      1  N         29.7160    0.4360  -35.7560 N.3    14  THR14      -0.1218
      2  CA        30.5990    1.0380  -36.7580 C.3    14  THR14       0.1862
      3  C         32.0510    0.5950  -36.6220 C.2    14  THR14       0.2287
      4  O         32.8390    0.6750  -37.5720 O.2    14  THR14      -0.2866
      5  CB        30.5880    2.5470  -36.5630 C.3    14  THR14       0.1770
      6  OG1       29.2310    3.0020  -36.5660 O.3    14  THR14      -0.2211
      7  CG2       31.3560    3.2370  -37.6590 C.3    14  THR14       0.0375
      8  N         48.1890   -8.8030  -34.9160 N.3   285  ILE285     -0.1245
      9  CA        48.5370   -8.5590  -36.3130 C.3   285  ILE285      0.1561
     10  C         49.5660   -9.5970  -36.7960 C.2   285  ILE285      0.2260
     11  O         49.5890   -9.9570  -37.9630 O.2   285  ILE285     -0.2867
     12  CB        49.0430   -7.1280  -36.5470 C.3   285  ILE285      0.0252
     13  CG1       48.0190   -6.1200  -36.0230 C.3   285  ILE285      0.0019
     14  CG2       49.2330   -6.8940  -38.0310 C.3   285  ILE285      0.0019
     15  CD1       48.6160   -4.7950  -35.7250 C.3   285  ILE285      0.0001
     16  N         44.7780   -5.8080  -34.3600 N.3   294  GLU294     -0.1245
     17  CA        43.8980   -5.0240  -35.2000 C.3   294  GLU294      0.1567
     18  C         42.5380   -5.7150  -35.1980 C.2   294  GLU294      0.2260
     19  O         42.4300   -6.8810  -34.8260 O.2   294  GLU294     -0.2867
     20  CB        44.4350   -4.9730  -36.6380 C.3   294  GLU294      0.0388
     21  CG        43.8940   -6.0820  -37.5700 C.3   294  GLU294      0.1160
     22  CD        44.9860   -6.9970  -38.1360 C.2   294  GLU294      0.3649
     23  OE1       45.9130   -6.4840  -38.8110 O.co2 294  GLU294     -0.2457
     24  OE2       44.9110   -8.2290  -37.9150 O.co2 294  GLU294     -0.2457
     25  N         37.8420   -7.3030  -46.5770 N.3   310  GLN310     -0.1231
     26  CA        37.5890   -6.5820  -45.3420 C.3   310  GLN310      0.1698
     27  C         37.3120   -5.0870  -45.4850 C.2   310  GLN310      0.2592
     28  O         37.5390   -4.4810  -46.5520 O.2   310  GLN310     -0.2718
     29  CB        38.6610   -6.8660  -44.2900 C.3   310  GLN310      0.0381
     30  CG        40.0250   -6.3240  -44.5770 C.3   310  GLN310      0.0905
     31  CD        40.5930   -5.6100  -43.3710 C.2   310  GLN310      0.2608
     32  OE1       39.8860   -4.8750  -42.6800 O.2   310  GLN310     -0.2717
     33  NE2       41.8720   -5.8130  -43.1130 N.am  310  GLN310     -0.0878
     34  N         36.8000   -4.5040  -44.4060 N.am  311  ILE311     -0.1966
     35  CA        36.4510   -3.0910  -44.3490 C.3   311  ILE311      0.1727
     36  C         36.5470   -2.7360  -42.8480 C.2   311  ILE311      0.2616
     37  O         36.6420   -3.6330  -41.9930 O.2   311  ILE311     -0.2715
     38  CB        34.9790   -2.8850  -44.9000 C.3   311  ILE311      0.0290
     39  CG1       34.6550   -1.4070  -45.1410 C.3   311  ILE311      0.0022
     40  CG2       33.9520   -3.4390  -43.9360 C.3   311  ILE311      0.0023
     41  CD1       35.2590   -0.8240  -46.3810 C.3   311  ILE311      0.0001
     42  N         36.6220   -1.4420  -42.5390 N.am  312  ASN312     -0.1958
     43  CA        36.6960   -0.9510  -41.1520 C.3   312  ASN312      0.1819
     44  C         37.8250   -1.3810  -40.1940 C.2   312  ASN312      0.2621
     45  O         37.6690   -1.2520  -38.9900 O.2   312  ASN312     -0.2715
     46  CB        35.3480   -1.1710  -40.4520 C.3   312  ASN312      0.1195
     47  CG        34.2400   -0.3100  -41.0210 C.2   312  ASN312      0.2630
     48  OD1       33.0650   -0.6390  -40.8850 O.2   312  ASN312     -0.2716
     49  ND2       34.6030    0.8030  -41.6640 N.am  312  ASN312     -0.0877
     50  N         38.9600   -1.8590  -40.6870 N.am  313  ARG313     -0.1977
     51  CA        40.0380   -2.2410  -39.7730 C.3   313  ARG313      0.1597
     52  C         40.4080   -1.1220  -38.7660 C.2   313  ARG313      0.2287
     53  O         40.1240    0.0590  -39.0120 O.2   313  ARG313     -0.2864
     54  CB        41.2940   -2.6550  -40.5460 C.3   313  ARG313      0.0334
     55  CG        42.4170   -3.1500  -39.6350 C.3   313  ARG313      0.0492
     56  CD        43.6820   -3.4870  -40.4000 C.3   313  ARG313      0.2205
     57  NE        44.6470   -2.3970  -40.3930 N.pl3 313  ARG313     -0.0865
     58  CZ        45.8770   -2.5050  -39.9010 C.cat 313  ARG313      0.5346
     59  NH1       46.2760   -3.6530  -39.3760 N.pl3 313  ARG313      0.1354
     60  NH2       46.7110   -1.4730  -39.9380 N.pl3 313  ARG313      0.1354
     61  N         43.5990   -0.4390  -35.5420 N.3   315  VAL315     -0.1245
     62  CA        44.7560   -0.9440  -34.7970 C.3   315  VAL315      0.1561
     63  C         44.4470   -0.5620  -33.3420 C.2   315  VAL315      0.2260
     64  O         44.1490    0.6040  -33.0410 O.2   315  VAL315     -0.2867
     65  CB        46.0840   -0.2370  -35.1790 C.3   315  VAL315      0.0252
     66  CG1       46.9900   -0.0580  -33.9420 C.3   315  VAL315      0.0019
     67  CG2       46.8100   -1.0290  -36.2280 C.3   315  VAL315      0.0019
     68  N         51.5790   -3.1040  -34.3420 N.3   319  SER319     -0.1217
     69  CA        52.2830   -4.3320  -34.6760 C.3   319  SER319      0.1889
     70  C         53.5530   -4.6510  -33.9000 C.2   319  SER319      0.2288
     71  O         53.9350   -5.8280  -33.8360 O.2   319  SER319     -0.2866
     72  CB        52.6170   -4.3610  -36.1610 C.3   319  SER319      0.2089
     73  OG        53.6910   -3.4670  -36.4430 O.3   319  SER319     -0.2183
     74  N         31.2190    7.7060  -34.5200 N.3   371  THR371     -0.1203
     75  CA        32.4830    7.9740  -35.1620 C.3   371  THR371      0.1994
     76  C         33.6060    7.7110  -34.1820 C.2   371  THR371      0.2618
     77  O         33.3750    7.6440  -32.9860 O.2   371  THR371     -0.2717
     78  CB        32.5090    9.4550  -35.6650 C.3   371  THR371      0.1784
     79  OG1       31.3530    9.7170  -36.4720 O.3   371  THR371     -0.2211
     80  CG2       33.7340    9.7350  -36.5030 C.3   371  THR371      0.0376
     81  N         34.8130    7.5110  -34.6930 N.am  372  TYR372     -0.1961
     82  CA        35.9900    7.2510  -33.8660 C.3   372  TYR372      0.1771
     83  C         37.2160    7.6060  -34.6770 C.2   372  TYR372      0.2620
     84  O         37.0970    7.8660  -35.8780 O.2   372  TYR372     -0.2715
     85  CB        36.0640    5.7890  -33.4330 C.3   372  TYR372      0.0574
     86  CG        35.8980    4.7690  -34.5320 C.ar  372  TYR372     -0.0198
     87  CD1       36.9800    4.3590  -35.3040 C.ar  372  TYR372     -0.0009
     88  CD2       34.6610    4.1650  -34.7570 C.ar  372  TYR372     -0.0009
     89  CE1       36.8410    3.3630  -36.2780 C.ar  372  TYR372      0.0417
     90  CE2       34.4970    3.1600  -35.7340 C.ar  372  TYR372      0.0417
     91  CZ        35.5930    2.7570  -36.4960 C.ar  372  TYR372      0.1957
     92  OH        35.4480    1.7710  -37.4650 O.3   372  TYR372     -0.2866
     93  N         38.3910    7.5310  -34.0550 N.am  373  GLY373     -0.1940
     94  CA        39.6090    7.9000  -34.7510 C.3   373  GLY373      0.2014
     95  C         40.6870    6.8510  -34.9360 C.2   373  GLY373      0.2639
     96  O         40.4750    5.7920  -35.5550 O.2   373  GLY373     -0.2714
     97  N         41.8660    7.1560  -34.4090 N.am  374  THR374     -0.1950
     98  CA        42.9910    6.2610  -34.5290 C.3   374  THR374      0.1897
     99  C         43.8590    6.3420  -33.2750 C.2   374  THR374      0.2313
    100  O         43.8040    7.3200  -32.5180 O.2   374  THR374     -0.2863
    101  CB        43.8200    6.6170  -35.7600 C.3   374  THR374      0.1794
    102  OG1       42.9470    6.7910  -36.8810 O.3   374  THR374     -0.2208
    103  CG2       44.7940    5.5070  -36.0820 C.3   374  THR374      0.0378
    104  N         47.1060    1.5020  -28.1520 N.3   377  TRP377     -0.1241
    105  CA        47.1360    1.6040  -26.7050 C.3   377  TRP377      0.1605
    106  C         47.8240    0.3820  -26.1150 C.2   377  TRP377      0.2264
    107  O         47.1800   -0.5530  -25.6120 O.2   377  TRP377     -0.2867
    108  CB        45.7080    1.7580  -26.1860 C.3   377  TRP377      0.0550
    109  CG        44.9840    2.9950  -26.7210 C.ar  377  TRP377      0.0003
    110  CD1       44.8240    4.1880  -26.0760 C.ar  377  TRP377      0.0946
    111  CD2       44.2540    3.1050  -27.9550 C.ar  377  TRP377      0.0152
    112  NE1       44.0230    5.0200  -26.8170 N.ar  377  TRP377     -0.2442
    113  CE2       43.6610    4.3820  -27.9740 C.ar  377  TRP377      0.0810
    114  CE3       44.0430    2.2470  -29.0390 C.ar  377  TRP377      0.0012
    115  CZ2       42.8710    4.8260  -29.0300 C.ar  377  TRP377      0.0191
    116  CZ3       43.2650    2.6830  -30.0860 C.ar  377  TRP377      0.0001
    117  CH2       42.6840    3.9690  -30.0740 C.ar  377  TRP377      0.0015
@<TRIPOS>BOND
     1    25    26    1
     2    28    27    2
     3    41    39    1
     4    27    26    1
     5    27    34   am
     6    26    29    1
     7    39    38    1
     8    38    35    1
     9    38    40    1
    10    30    29    1
    11    30    31    1
    12    34    35    1
    13    35    36    1
    14    31    33   am
    15    31    32    2
    16    36    42   am
    17    36    37    2
    18    42    43    1
    19    49    47   am
    20    43    46    1
    21    43    44    1
    22    47    48    2
    23    47    46    1
    24    50    44   am
    25    50    51    1
    26    54    51    1
    27    54    55    1
    28    56    57    1
    29    56    55    1
    30    57    58    2
    31    44    45    2
    32    60    58    1
    33    58    59    1
    34    51    52    1
    35    53    52    2
    36    23    22   ar
    37    22    24   ar
    38    22    21    1
    39    14    12    1
    40    11    10    2
    41     7     5    1
    42     4     3    2
    43    21    20    1
    44    92    91    1
    45   102   101    1
    46    10     9    1
    47     2     3    1
    48     2     5    1
    49     2     1    1
    50    20    17    1
    51     6     5    1
    52    12     9    1
    53    12    13    1
    54    80    78    1
    55    91    89   ar
    56    91    90   ar
    57    79    78    1
    58    73    72    1
    59     9     8    1
    60    89    87   ar
    61    67    65    1
    62    72    69    1
    63   103   101    1
    64    13    15    1
    65    84    83    2
    66   101    98    1
    67    90    88   ar
    68    78    75    1
    69    96    95    2
    70    61    62    1
    71    87    86   ar
    72    17    18    1
    73    17    16    1
    74    18    19    2
    75    65    62    1
    76    65    66    1
    77    75    74    1
    78    75    76    1
    79    95    94    1
    80    95    97   am
    81    62    63    1
    82    88    86   ar
    83    94    93    1
    84    81    76   am
    85    81    82    1
    86    83    93   am
    87    83    82    1
    88    69    68    1
    89    69    70    1
    90    86    85    1
    91    98    97    1
    92    98    99    1
    93    76    77    2
    94    70    71    2
    95    82    85    1
    96    63    64    2
    97    99   100    2
    98   116   117   ar
    99   116   114   ar
   100   117   115   ar
   101   114   111   ar
   102   115   113   ar
   103   104   105    1
   104   113   111   ar
   105   113   112   ar
   106   111   109   ar
   107   112   110   ar
   108   109   108    1
   109   109   110   ar
   110   105   108    1
   111   105   106    1
   112   106   107    2
