@<TRIPOS>MOLECULE
tmp/1ivhA02.pdb
 136 133 0 0 0
SMALL
GASTEIGER

@<TRIPOS>ATOM
      1  N         17.8140   74.7800  -20.4490 N.3   271  TYR271     -0.1241
      2  CA        18.2400   74.9940  -21.8300 C.3   271  TYR271      0.1605
      3  C         17.2110   74.4670  -22.8210 C.2   271  TYR271      0.2264
      4  O         16.8890   75.1270  -23.8050 O.2   271  TYR271     -0.2867
      5  CB        19.6260   74.3560  -22.0680 C.3   271  TYR271      0.0534
      6  CG        20.1900   74.5920  -23.4580 C.ar  271  TYR271     -0.0201
      7  CD1       20.6970   75.8390  -23.8280 C.ar  271  TYR271     -0.0009
      8  CD2       20.1600   73.5850  -24.4210 C.ar  271  TYR271     -0.0009
      9  CE1       21.1440   76.0790  -25.1230 C.ar  271  TYR271      0.0417
     10  CE2       20.6050   73.8140  -25.7140 C.ar  271  TYR271      0.0417
     11  CZ        21.0890   75.0640  -26.0590 C.ar  271  TYR271      0.1957
     12  OH        21.4750   75.2950  -27.3550 O.3   271  TYR271     -0.2866
     13  N         16.1390   77.0490  -25.9000 N.3   275  ARG275     -0.1245
     14  CA        16.5740   76.8120  -27.2620 C.3   275  ARG275      0.1563
     15  C         15.3760   76.3740  -28.0640 C.2   275  ARG275      0.2260
     16  O         14.6650   75.4590  -27.6690 O.2   275  ARG275     -0.2867
     17  CB        17.6360   75.7140  -27.2980 C.3   275  ARG275      0.0307
     18  CG        18.1250   75.3390  -28.6910 C.3   275  ARG275      0.0489
     19  CD        18.9040   76.4690  -29.3550 C.3   275  ARG275      0.2205
     20  NE        19.4570   76.0570  -30.6440 N.pl3 275  ARG275     -0.0865
     21  CZ        20.1790   76.8390  -31.4420 C.cat 275  ARG275      0.5346
     22  NH1       20.4400   78.0930  -31.0880 N.pl3 275  ARG275      0.1354
     23  NH2       20.6550   76.3580  -32.5880 N.pl3 275  ARG275      0.1354
     24  N         13.7960   75.2120  -31.9540 N.3   277  ALA277     -0.1231
     25  CA        14.0710   74.6670  -33.2630 C.3   277  ALA277      0.1694
     26  C         12.7290   74.2790  -33.8600 C.2   277  ALA277      0.2592
     27  O         11.8310   73.8060  -33.1540 O.2   277  ALA277     -0.2718
     28  CB        14.9900   73.4400  -33.1540 C.3   277  ALA277      0.0304
     29  N         12.5860   74.5360  -35.1550 N.am  278  PHE278     -0.1976
     30  CA        11.3680   74.2220  -35.8900 C.3   278  PHE278      0.1639
     31  C         10.1330   74.9150  -35.3030 C.2   278  PHE278      0.2290
     32  O          9.0260   74.3720  -35.3360 O.2   278  PHE278     -0.2864
     33  CB        11.1540   72.7090  -35.9270 C.3   278  PHE278      0.0560
     34  CG        12.2980   71.9470  -36.5270 C.ar  278  PHE278     -0.0200
     35  CD1       12.3870   71.7670  -37.9030 C.ar  278  PHE278     -0.0042
     36  CD2       13.2630   71.3630  -35.7110 C.ar  278  PHE278     -0.0042
     37  CE1       13.4120   71.0160  -38.4540 C.ar  278  PHE278     -0.0003
     38  CE2       14.2910   70.6100  -36.2580 C.ar  278  PHE278     -0.0003
     39  CZ        14.3640   70.4350  -37.6310 C.ar  278  PHE278     -0.0000
     40  N         12.9630   73.0560  -28.0020 N.3   282  ILE282     -0.1245
     41  CA        13.4080   71.6870  -28.2670 C.3   282  ILE282      0.1561
     42  C         12.8940   70.7100  -27.2100 C.2   282  ILE282      0.2260
     43  O         12.6940   69.5310  -27.4920 O.2   282  ILE282     -0.2867
     44  CB        14.9440   71.5960  -28.3350 C.3   282  ILE282      0.0252
     45  CG1       15.5560   72.1630  -27.0540 C.3   282  ILE282      0.0019
     46  CG2       15.4480   72.3140  -29.5760 C.3   282  ILE282      0.0019
     47  CD1       17.0470   72.2290  -27.0600 C.3   282  ILE282      0.0001
     48  N          9.7250   68.3860  -27.9740 N.3   285  PHE285     -0.1241
     49  CA         9.7480   67.2830  -28.9210 C.3   285  PHE285      0.1605
     50  C          9.7850   66.0220  -28.0800 C.2   285  PHE285      0.2264
     51  O         10.3720   66.0190  -27.0040 O.2   285  PHE285     -0.2867
     52  CB        10.9810   67.3650  -29.8220 C.3   285  PHE285      0.0534
     53  CG        10.9380   68.5030  -30.8010 C.ar  285  PHE285     -0.0203
     54  CD1       10.2500   68.3780  -31.9990 C.ar  285  PHE285     -0.0042
     55  CD2       11.5820   69.7000  -30.5220 C.ar  285  PHE285     -0.0042
     56  CE1       10.2020   69.4300  -32.9050 C.ar  285  PHE285     -0.0003
     57  CE2       11.5400   70.7610  -31.4230 C.ar  285  PHE285     -0.0003
     58  CZ        10.8490   70.6260  -32.6150 C.ar  285  PHE285     -0.0000
     59  N         11.3550   63.1000  -28.4070 N.3   287  LEU287     -0.1231
     60  CA        12.7170   62.6230  -28.2000 C.3   287  LEU287      0.1693
     61  C         13.4060   63.3400  -27.0410 C.2   287  LEU287      0.2591
     62  O         14.0870   62.7060  -26.2360 O.2   287  LEU287     -0.2718
     63  CB        13.5200   62.7820  -29.4940 C.3   287  LEU287      0.0284
     64  CG        13.6640   61.5650  -30.4160 C.3   287  LEU287      0.0019
     65  CD1       12.6730   60.4740  -30.0820 C.3   287  LEU287      0.0001
     66  CD2       13.5280   62.0030  -31.8540 C.3   287  LEU287      0.0001
     67  N         13.2060   64.6520  -26.9450 N.am  288  MET288     -0.1979
     68  CA        13.8020   65.4320  -25.8730 C.3   288  MET288      0.1605
     69  C         13.0770   65.2380  -24.5520 C.2   288  MET288      0.2287
     70  O         13.7020   65.2970  -23.4950 O.2   288  MET288     -0.2864
     71  CB        13.8770   66.9070  -26.2470 C.3   288  MET288      0.0413
     72  CG        14.8860   67.2130  -27.3400 C.3   288  MET288      0.0598
     73  SD        16.5820   66.7580  -26.8790 S.3   288  MET288     -0.1393
     74  CE        16.8090   65.3570  -27.8970 C.3   288  MET288      0.0692
     75  N         24.4850   65.9390  -25.4300 N.3   343  GLN343     -0.1231
     76  CA        23.5880   65.7540  -26.5770 C.3   343  GLN343      0.1698
     77  C         22.4950   66.8320  -26.6550 C.2   343  GLN343      0.2592
     78  O         22.2660   67.4210  -27.7160 O.2   343  GLN343     -0.2718
     79  CB        22.9420   64.3640  -26.5260 C.3   343  GLN343      0.0381
     80  CG        22.2030   63.9370  -27.7910 C.3   343  GLN343      0.0905
     81  CD        23.1240   63.6870  -28.9730 C.2   343  GLN343      0.2608
     82  OE1       22.8650   64.1400  -30.0790 O.2   343  GLN343     -0.2717
     83  NE2       24.1960   62.9460  -28.7460 N.am  343  GLN343     -0.0878
     84  N         21.8580   67.1150  -25.5200 N.am  344  CYS344     -0.1956
     85  CA        20.7890   68.1110  -25.4510 C.3   344  CYS344      0.1843
     86  C         21.2130   69.5120  -25.8360 C.2   344  CYS344      0.2625
     87  O         20.3920   70.3300  -26.2390 O.2   344  CYS344     -0.2714
     88  CB        20.2010   68.1550  -24.0530 C.3   344  CYS344      0.0997
     89  SG        19.2420   66.7170  -23.6430 S.3   344  CYS344     -0.0797
     90  N         22.4910   69.8010  -25.6520 N.am  345  PHE345     -0.1960
     91  CA        23.0250   71.1110  -25.9840 C.3   345  PHE345      0.1771
     92  C         23.4730   71.2100  -27.4360 C.2   345  PHE345      0.2620
     93  O         23.6920   72.3060  -27.9430 O.2   345  PHE345     -0.2715
     94  CB        24.1860   71.4460  -25.0620 C.3   345  PHE345      0.0574
     95  CG        23.7730   72.0310  -23.7590 C.ar  345  PHE345     -0.0200
     96  CD1       23.2070   71.2430  -22.7690 C.ar  345  PHE345     -0.0042
     97  CD2       23.9820   73.3760  -23.5050 C.ar  345  PHE345     -0.0042
     98  CE1       22.8540   71.7940  -21.5340 C.ar  345  PHE345     -0.0003
     99  CE2       23.6330   73.9330  -22.2780 C.ar  345  PHE345     -0.0003
    100  CZ        23.0700   73.1410  -21.2920 C.ar  345  PHE345     -0.0000
    101  N         23.5810   70.0770  -28.1200 N.am  346  GLY346     -0.1940
    102  CA        24.0270   70.1050  -29.5030 C.3   346  GLY346      0.2014
    103  C         25.4650   70.5990  -29.5600 C.2   346  GLY346      0.2639
    104  O         26.2740   70.2690  -28.6830 O.2   346  GLY346     -0.2714
    105  N         25.7820   71.4150  -30.5610 N.am  347  GLY347     -0.1939
    106  CA        27.1260   71.9470  -30.6900 C.3   347  GLY347      0.2014
    107  C         27.5850   72.5860  -29.3950 C.2   347  GLY347      0.2638
    108  O         28.6770   72.3160  -28.9130 O.2   347  GLY347     -0.2714
    109  N         26.7060   73.3600  -28.7760 N.am  348  ASN348     -0.1972
    110  CA        27.0200   74.0400  -27.5240 C.3   348  ASN348      0.1688
    111  C         27.4730   73.1250  -26.3990 C.2   348  ASN348      0.2292
    112  O         28.1240   73.5760  -25.4630 O.2   348  ASN348     -0.2864
    113  CB        25.8270   74.8700  -27.0390 C.3   348  ASN348      0.1181
    114  CG        25.6880   76.1800  -27.7840 C.2   348  ASN348      0.2629
    115  OD1       26.6800   76.8570  -28.0620 O.2   348  ASN348     -0.2716
    116  ND2       24.4580   76.5450  -28.1200 N.am  348  ASN348     -0.0877
    117  N         29.3070   70.5780  -26.9120 N.3   350  TYR350     -0.1227
    118  CA        30.6020   70.1260  -27.3780 C.3   350  TYR350      0.1736
    119  C         31.7300   71.1650  -27.2740 C.2   350  TYR350      0.2595
    120  O         32.8370   70.9190  -27.7430 O.2   350  TYR350     -0.2718
    121  CB        30.4620   69.6250  -28.8150 C.3   350  TYR350      0.0548
    122  CG        31.5660   68.6950  -29.2420 C.ar  350  TYR350     -0.0200
    123  CD1       31.6420   67.4080  -28.7290 C.ar  350  TYR350     -0.0009
    124  CD2       32.5410   69.1030  -30.1450 C.ar  350  TYR350     -0.0009
    125  CE1       32.6570   66.5540  -29.0950 C.ar  350  TYR350      0.0417
    126  CE2       33.5610   68.2560  -30.5190 C.ar  350  TYR350      0.0417
    127  CZ        33.6120   66.9820  -29.9910 C.ar  350  TYR350      0.1957
    128  OH        34.6220   66.1290  -30.3460 O.3   350  TYR350     -0.2866
    129  N         31.4540   72.3320  -26.7020 N.am  351  ILE351     -0.1980
    130  CA        32.4930   73.3430  -26.5480 C.3   351  ILE351      0.1595
    131  C         32.7950   73.5500  -25.0570 C.2   351  ILE351      0.2287
    132  O         31.9000   73.4550  -24.2060 O.2   351  ILE351     -0.2864
    133  CB        32.1260   74.6730  -27.2420 C.3   351  ILE351      0.0276
    134  CG1       31.0080   75.3920  -26.4900 C.3   351  ILE351      0.0022
    135  CG2       31.7350   74.4100  -28.6940 C.3   351  ILE351      0.0022
    136  CD1       30.7750   76.8050  -26.9710 C.3   351  ILE351      0.0001
@<TRIPOS>BOND
     1    37    35   ar
     2    37    39   ar
     3    35    34   ar
     4    39    38   ar
     5    34    33    1
     6    34    36   ar
     7    38    36   ar
     8    33    30    1
     9    30    31    1
    10    30    29    1
    11    32    31    2
    12    29    26   am
    13    26    25    1
    14    26    27    2
    15    25    28    1
    16    25    24    1
    17    56    58   ar
    18    56    54   ar
    19    58    57   ar
    20    23    21    1
    21    54    53   ar
    22    66    64    1
    23    21    22    1
    24    21    20    2
    25    57    55   ar
    26    53    55   ar
    27    53    52    1
    28   106   105    1
    29   106   107    1
    30    20    19    1
    31   105   103   am
    32   126   124   ar
    33   126   127   ar
    34    64    65    1
    35    64    63    1
    36   128   127    1
    37   124   122   ar
    38    82    81    2
    39   127   125   ar
    40    52    49    1
    41    46    44    1
    42   103   102    1
    43   103   104    2
    44   102   101    1
    45    63    60    1
    46   107   108    2
    47   107   109   am
    48    19    18    1
    49   122   121    1
    50   122   123   ar
    51   125   123   ar
    52    81    83   am
    53    81    80    1
    54    49    50    1
    55    49    48    1
    56   121   118    1
    57   109   110    1
    58   135   133    1
    59    18    17    1
    60    59    60    1
    61    44    41    1
    62    44    45    1
    63    41    40    1
    64    41    42    1
    65    60    61    1
    66   101    92   am
    67   116   114   am
    68    50    51    2
    69    15    16    2
    70    15    14    1
    71   115   114    2
    72    93    92    2
    73    74    73    1
    74    80    79    1
    75   114   113    1
    76   120   119    2
    77    78    77    2
    78   110   113    1
    79   110   111    1
    80    43    42    2
    81    92    91    1
    82   118   119    1
    83   118   117    1
    84    12    11    1
    85    72    73    1
    86    72    71    1
    87    17    14    1
    88   119   129   am
    89    14    13    1
    90   133   130    1
    91   133   134    1
    92    47    45    1
    93    61    67   am
    94    61    62    2
    95   136   134    1
    96    67    68    1
    97   129   130    1
    98    77    76    1
    99    77    84   am
   100    76    79    1
   101    76    75    1
   102   130   131    1
   103   111   112    2
   104    71    68    1
   105    87    86    2
   106    11    10   ar
   107    11     9   ar
   108    91    90    1
   109    91    94    1
   110    68    69    1
   111    86    90   am
   112    86    85    1
   113    10     8   ar
   114    84    85    1
   115    85    88    1
   116     9     7   ar
   117    94    95    1
   118   131   132    2
   119    69    70    2
   120     8     6   ar
   121    88    89    1
   122     7     6   ar
   123     4     3    2
   124    95    97   ar
   125    95    96   ar
   126    97    99   ar
   127     6     5    1
   128     3     2    1
   129    96    98   ar
   130    99   100   ar
   131     5     2    1
   132     2     1    1
   133    98   100   ar
