@<TRIPOS>MOLECULE
tmp/1ivoA03.pdb
 87 84 0 0 0
SMALL
GASTEIGER

@<TRIPOS>ATOM
      1  N        127.6010   61.5530   52.4910 N.3   348  PRO348     -0.2116
      2  CA       128.9590   61.7620   52.9790 C.3   348  PRO348      0.1372
      3  C        129.0010   62.1390   54.4520 C.2   348  PRO348      0.2244
      4  O        129.7240   61.5290   55.2380 O.2   348  PRO348     -0.2868
      5  CB       129.4700   62.8910   52.0900 C.3   348  PRO348      0.0268
      6  CG       128.6850   62.7270   50.8350 C.3   348  PRO348      0.0207
      7  CD       127.3170   62.4460   51.3560 C.3   348  PRO348      0.0892
      8  N        125.3600   58.8000   47.8730 N.3   383  GLN383     -0.1231
      9  CA       126.3910   59.7310   47.4220 C.3   383  GLN383      0.1698
     10  C        127.6880   59.5100   48.2080 C.2   383  GLN383      0.2592
     11  O        128.5940   60.3430   48.1720 O.2   383  GLN383     -0.2718
     12  CB       125.9200   61.1710   47.6290 C.3   383  GLN383      0.0381
     13  CG       124.5780   61.4740   46.9900 C.3   383  GLN383      0.0905
     14  CD       124.1750   62.9300   47.1310 C.2   383  GLN383      0.2608
     15  OE1      123.1120   63.3490   46.6560 O.2   383  GLN383     -0.2717
     16  NE2      125.0230   63.7100   47.7860 N.am  383  GLN383     -0.0878
     17  N        127.7690   58.3860   48.9170 N.am  384  ALA384     -0.1966
     18  CA       128.9410   58.0620   49.7250 C.3   384  ALA384      0.1728
     19  C        129.0230   56.5600   49.9550 C.2   384  ALA384      0.2616
     20  O        128.1470   55.8190   49.5150 O.2   384  ALA384     -0.2715
     21  CB       128.8670   58.7860   51.0640 C.3   384  ALA384      0.0334
     22  N        130.0750   56.1240   50.6450 N.am  385  TRP385     -0.1974
     23  CA       130.2910   54.7090   50.9450 C.3   385  TRP385      0.1640
     24  C        131.6740   54.6040   51.5580 C.2   385  TRP385      0.2290
     25  O        132.5540   55.3960   51.2300 O.2   385  TRP385     -0.2864
     26  CB       130.2600   53.8870   49.6650 C.3   385  TRP385      0.0576
     27  CG       129.9040   52.4370   49.8190 C.ar  385  TRP385      0.0006
     28  CD1      130.6180   51.3760   49.3470 C.ar  385  TRP385      0.0946
     29  CD2      128.6760   51.8950   50.3240 C.ar  385  TRP385      0.0152
     30  NE1      129.9110   50.2140   49.5110 N.ar  385  TRP385     -0.2442
     31  CE2      128.7150   50.5030   50.1100 C.ar  385  TRP385      0.0810
     32  CE3      127.5430   52.4510   50.9300 C.ar  385  TRP385      0.0012
     33  CZ2      127.6650   49.6560   50.4770 C.ar  385  TRP385      0.0191
     34  CZ3      126.4930   51.6020   51.2930 C.ar  385  TRP385      0.0001
     35  CH2      126.5660   50.2240   51.0630 C.ar  385  TRP385      0.0015
     36  N        135.4750   53.8980   52.4830 N.3   387  GLU387     -0.1245
     37  CA       136.6440   53.8960   51.6140 C.3   387  GLU387      0.1567
     38  C        137.1910   52.5120   51.2710 C.2   387  GLU387      0.2260
     39  O        136.9900   52.0140   50.1620 O.2   387  GLU387     -0.2867
     40  CB       137.7650   54.7520   52.2230 C.3   387  GLU387      0.0388
     41  CG       137.3900   56.2140   52.4740 C.3   387  GLU387      0.1160
     42  CD       138.5930   57.1510   52.4420 C.2   387  GLU387      0.3649
     43  OE1      139.1570   57.3520   51.3450 O.co2 387  GLU387     -0.2457
     44  OE2      138.9780   57.6850   53.5080 O.co2 387  GLU387     -0.2457
     45  N        129.3030   59.1630   42.4330 N.3   417  SER417     -0.1202
     46  CA       130.5450   59.6110   43.0660 C.3   417  SER417      0.2020
     47  C        131.3230   58.6640   43.9800 C.2   417  SER417      0.2619
     48  O        132.1690   59.1180   44.7560 O.2   417  SER417     -0.2717
     49  CB       130.2750   60.9190   43.8180 C.3   417  SER417      0.2103
     50  OG       129.5040   61.8120   43.0250 O.3   417  SER417     -0.2182
     51  N        131.0720   57.3630   43.8830 N.am  418  LEU418     -0.1965
     52  CA       131.7800   56.4070   44.7350 C.3   418  LEU418      0.1728
     53  C        133.1010   55.9210   44.1330 C.2   418  LEU418      0.2616
     54  O        133.3780   56.1460   42.9510 O.2   418  LEU418     -0.2715
     55  CB       130.8870   55.1980   45.0220 C.3   418  LEU418      0.0311
     56  CG       129.4630   55.4880   45.4920 C.3   418  LEU418      0.0022
     57  CD1      128.8050   54.1890   45.9200 C.3   418  LEU418      0.0001
     58  CD2      129.4860   56.4680   46.6460 C.3   418  LEU418      0.0001
     59  N        133.9170   55.2620   44.9570 N.am  419  ASN419     -0.1972
     60  CA       135.1930   54.7190   44.4950 C.3   419  ASN419      0.1688
     61  C        135.0710   53.2150   44.3200 C.2   419  ASN419      0.2292
     62  O        136.0410   52.5430   43.9790 O.2   419  ASN419     -0.2864
     63  CB       136.3200   54.9680   45.4980 C.3   419  ASN419      0.1181
     64  CG       136.5110   56.4340   45.8300 C.2   419  ASN419      0.2629
     65  OD1      136.2040   57.3190   45.0280 O.2   419  ASN419     -0.2716
     66  ND2      137.0560   56.6800   47.0200 N.am  419  ASN419     -0.0877
     67  N        130.1710   59.3670   37.7710 N.3   440  GLY440     -0.1225
     68  CA       131.2540   59.9030   38.5780 C.3   440  GLY440      0.1811
     69  C        131.9920   58.8600   39.3960 C.2   440  GLY440      0.2280
     70  O        132.8380   59.2030   40.2240 O.2   440  GLY440     -0.2866
     71  N        134.6750   56.9360   39.4800 N.3   442  LYS442     -0.1231
     72  CA       136.0160   56.7300   38.9330 C.3   442  LYS442      0.1693
     73  C        136.3510   55.3350   38.4100 C.2   442  LYS442      0.2592
     74  O        136.4510   55.1310   37.2010 O.2   442  LYS442     -0.2718
     75  CB       137.0810   57.1430   39.9580 C.3   442  LYS442      0.0285
     76  CG       137.1950   58.6430   40.1880 C.3   442  LYS442      0.0035
     77  CD       138.6440   59.0710   40.4620 C.3   442  LYS442      0.0206
     78  CE       139.1780   58.5740   41.8030 C.3   442  LYS442      0.1093
     79  NZ       138.4360   59.1630   42.9580 N.3   442  LYS442     -0.1314
     80  N        136.5340   54.3800   39.3150 N.am  443  ASN443     -0.1974
     81  CA       136.8820   53.0230   38.9140 C.3   443  ASN443      0.1688
     82  C        135.7890   51.9850   39.1400 C.2   443  ASN443      0.2292
     83  O        135.9530   51.0470   39.9150 O.2   443  ASN443     -0.2864
     84  CB       138.1830   52.5860   39.6070 C.3   443  ASN443      0.1181
     85  CG       138.2620   53.0430   41.0510 C.2   443  ASN443      0.2629
     86  OD1      137.3780   52.7540   41.8540 O.2   443  ASN443     -0.2716
     87  ND2      139.3310   53.7570   41.3900 N.am  443  ASN443     -0.0877
@<TRIPOS>BOND
     1    74    73    2
     2    67    68    1
     3    73    72    1
     4    73    80   am
     5    68    69    1
     6    81    82    1
     7    81    80    1
     8    81    84    1
     9    72    71    1
    10    72    75    1
    11    82    83    2
    12    69    70    2
    13    84    85    1
    14    75    76    1
    15    76    77    1
    16    77    78    1
    17    85    87   am
    18    85    86    2
    19    78    79    1
    20    45    46    1
    21    54    53    2
    22    50    49    1
    23    46    49    1
    24    46    47    1
    25    51    47   am
    26    51    52    1
    27    62    61    2
    28    47    48    2
    29    53    52    1
    30    53    59   am
    31    61    60    1
    32    60    59    1
    33    60    63    1
    34    52    55    1
    35    55    56    1
    36    65    64    2
    37    56    57    1
    38    56    58    1
    39    63    64    1
    40    64    66   am
    41    15    14    2
    42    13    14    1
    43    13    12    1
    44    14    16   am
    45     9    12    1
    46     9     8    1
    47     9    10    1
    48    11    10    2
    49    10    17   am
    50    17    18    1
    51    28    30   ar
    52    28    27   ar
    53    30    31   ar
    54    20    19    2
    55    26    27    1
    56    26    23    1
    57    18    19    1
    58    18    21    1
    59    27    29   ar
    60    19    22   am
    61    31    29   ar
    62    31    33   ar
    63    39    38    2
    64    29    32   ar
    65    33    35   ar
    66    22    23    1
    67     6     7    1
    68     6     5    1
    69    32    34   ar
    70    23    24    1
    71    35    34   ar
    72    25    24    2
    73    38    37    1
    74    43    42   ar
    75     7     1    1
    76    37    40    1
    77    37    36    1
    78     5     2    1
    79    40    41    1
    80    42    41    1
    81    42    44   ar
    82     1     2    1
    83     2     3    1
    84     3     4    2
