@<TRIPOS>MOLECULE
tmp/1ivpB00.pdb
 124 117 0 0 0
SMALL
GASTEIGER

@<TRIPOS>ATOM
      1  N          1.8650   31.8180   20.6940 N.3     8  ARG8       -0.1245
      2  CA         1.9770   30.6070   19.8710 C.3     8  ARG8        0.1563
      3  C          2.6450   31.0220   18.5800 C.2     8  ARG8        0.2260
      4  O          2.2290   32.0350   18.0010 O.2     8  ARG8       -0.2867
      5  CB         0.5900   30.0750   19.5030 C.3     8  ARG8        0.0307
      6  CG        -0.0830   29.3030   20.6140 C.3     8  ARG8        0.0489
      7  CD        -1.4390   28.8530   20.2170 C.3     8  ARG8        0.2205
      8  NE        -1.9840   28.1410   21.3830 N.pl3   8  ARG8       -0.0865
      9  CZ        -3.2860   27.9340   21.4930 C.cat   8  ARG8        0.5346
     10  NH1       -4.1220   28.3350   20.5480 N.pl3   8  ARG8        0.1354
     11  NH2       -3.7690   27.3220   22.5680 N.pl3   8  ARG8        0.1354
     12  N          0.8650   26.0860   12.9710 N.3    23  LEU23      -0.1245
     13  CA         1.6660   26.2030   14.2240 C.3    23  LEU23       0.1561
     14  C          3.0690   25.6010   13.9780 C.2    23  LEU23       0.2260
     15  O          3.0960   24.4000   13.5850 O.2    23  LEU23      -0.2867
     16  CB         0.8920   25.4100   15.3010 C.3    23  LEU23       0.0270
     17  CG         1.4540   25.2160   16.6970 C.3    23  LEU23       0.0019
     18  CD1        1.5360   26.4520   17.5740 C.3    23  LEU23       0.0001
     19  CD2        0.6640   24.1890   17.5040 C.3    23  LEU23       0.0001
     20  N          5.8720   23.6620   15.2110 N.3    25  ASP25      -0.1239
     21  CA         5.9830   22.7970   16.3950 C.3    25  ASP25       0.1674
     22  C          7.1390   21.8340   16.4720 C.2    25  ASP25       0.2266
     23  O          7.0710   20.8000   15.8060 O.2    25  ASP25      -0.2867
     24  CB         4.6120   22.1190   16.4280 C.3    25  ASP25       0.1410
     25  CG         4.0550   21.1470   17.3610 C.2    25  ASP25       0.3668
     26  OD1        4.6530   20.8240   18.3830 O.co2  25  ASP25      -0.2456
     27  OD2        2.9640   20.5540   17.2510 O.co2  25  ASP25      -0.2456
     28  N          7.6700   19.7960   18.5800 N.3    27  GLY27      -0.1210
     29  CA         7.1400   18.6450   19.2960 C.3    27  GLY27       0.1956
     30  C          6.3730   17.6230   18.4690 C.2    27  GLY27       0.2612
     31  O          5.8890   16.6240   19.0020 O.2    27  GLY27      -0.2717
     32  N          6.2650   17.7900   17.1790 N.am   28  ALA28      -0.1965
     33  CA         5.5870   16.9550   16.2120 C.3    28  ALA28       0.1728
     34  C          6.5920   16.3390   15.2410 C.2    28  ALA28       0.2616
     35  O          7.4000   17.1140   14.7820 O.2    28  ALA28      -0.2715
     36  CB         4.6480   17.8460   15.3480 C.3    28  ALA28       0.0334
     37  N          6.5110   15.0830   14.9790 N.am   29  ASP29      -0.1957
     38  CA         7.4130   14.3840   14.0720 C.3    29  ASP29       0.1840
     39  C          7.0600   14.7100   12.6060 C.2    29  ASP29       0.2622
     40  O          7.9370   14.7730   11.7410 O.2    29  ASP29      -0.2715
     41  CB         7.4030   12.8930   14.3570 C.3    29  ASP29       0.1450
     42  CG         7.8990   12.3430   15.6670 C.2    29  ASP29       0.3671
     43  OD1        8.8550   12.6860   16.3810 O.co2  29  ASP29      -0.2456
     44  OD2        7.2370   11.3540   16.0300 O.co2  29  ASP29      -0.2456
     45  N          5.8050   14.8970   12.3540 N.am   30  ASP30      -0.1971
     46  CA         4.9930   15.1630   11.2120 C.3    30  ASP30       0.1709
     47  C          4.1570   16.4510   11.2730 C.2    30  ASP30       0.2293
     48  O          3.9970   17.0080   12.3750 O.2    30  ASP30      -0.2864
     49  CB         3.9210   14.0170   11.1250 C.3    30  ASP30       0.1436
     50  CG         4.6930   12.7000   11.1310 C.2    30  ASP30       0.3671
     51  OD1        5.8590   12.8490   10.7170 O.co2  30  ASP30      -0.2456
     52  OD2        4.2760   11.6130   11.5380 O.co2  30  ASP30      -0.2456
     53  N          0.3270   18.0850   10.2160 N.3    32  ILE32      -0.1245
     54  CA        -1.0670   17.7350    9.9690 C.3    32  ILE32       0.1561
     55  C         -2.0050   18.9280    9.7580 C.2    32  ILE32       0.2260
     56  O         -1.9480   19.9400   10.5030 O.2    32  ILE32      -0.2867
     57  CB        -1.5840   16.8300   11.1510 C.3    32  ILE32       0.0252
     58  CG1       -0.4090   15.8800   11.5290 C.3    32  ILE32       0.0019
     59  CG2       -2.8660   16.0490   10.7510 C.3    32  ILE32       0.0019
     60  CD1       -0.8520   14.6560   12.3640 C.3    32  ILE32       0.0001
     61  N         -1.4490    8.4090   13.3910 N.3    47  VAL47      -0.1231
     62  CA        -0.4650    9.2140   14.1420 C.3    47  VAL47       0.1692
     63  C         -1.0700    9.4130   15.5430 C.2    47  VAL47       0.2593
     64  O         -2.2950    9.4740   15.6510 O.2    47  VAL47      -0.2718
     65  CB        -0.1590   10.4890   13.3710 C.3    47  VAL47       0.0266
     66  CG1       -1.1460   10.7640   12.2410 C.3    47  VAL47       0.0020
     67  CG2       -0.2640   11.6960   14.2910 C.3    47  VAL47       0.0020
     68  N         -0.2900    9.4890   16.5950 N.am   48  GLY48      -0.1942
     69  CA        -0.7370    9.6350   17.9780 C.3    48  GLY48       0.2014
     70  C         -0.1870   10.8190   18.7280 C.2    48  GLY48       0.2639
     71  O          0.7770   11.4080   18.2350 O.2    48  GLY48      -0.2714
     72  N         -0.8160   11.1390   19.8510 N.am   49  GLY49      -0.1939
     73  CA        -0.3630   12.2690   20.6910 C.3    49  GLY49       0.2014
     74  C         -1.1220   12.3280   22.0040 C.2    49  GLY49       0.2638
     75  O         -1.5950   11.2730   22.4540 O.2    49  GLY49      -0.2714
     76  N         -1.2470   13.4890   22.6140 N.am   50  ILE50      -0.1977
     77  CA        -2.0080   13.5960   23.8760 C.3    50  ILE50       0.1596
     78  C         -3.5000   13.3420   23.5920 C.2    50  ILE50       0.2287
     79  O         -4.1100   13.9960   22.7010 O.2    50  ILE50      -0.2864
     80  CB        -1.7430   14.9590   24.5920 C.3    50  ILE50       0.0276
     81  CG1       -0.4430   14.8810   25.4400 C.3    50  ILE50       0.0022
     82  CG2       -2.8670   15.4680   25.5100 C.3    50  ILE50       0.0022
     83  CD1       -0.5650   14.0030   26.7100 C.3    50  ILE50       0.0001
     84  N         -5.0090    8.5530   19.5890 N.3    53  PHE53      -0.1241
     85  CA        -4.8810    8.4630   18.1600 C.3    53  PHE53       0.1605
     86  C         -5.9920    9.0600   17.3180 C.2    53  PHE53       0.2264
     87  O         -7.1310    9.2220   17.7620 O.2    53  PHE53      -0.2867
     88  CB        -4.6880    6.9540   17.8130 C.3    53  PHE53       0.0534
     89  CG        -3.3100    6.5660   18.2710 C.ar   53  PHE53      -0.0203
     90  CD1       -2.2110    6.8720   17.5060 C.ar   53  PHE53      -0.0042
     91  CD2       -3.1300    5.9610   19.4980 C.ar   53  PHE53      -0.0042
     92  CE1       -0.9120    6.5790   17.9410 C.ar   53  PHE53      -0.0003
     93  CE2       -1.8570    5.6500   19.9590 C.ar   53  PHE53      -0.0003
     94  CZ        -0.7390    5.9590   19.1770 C.ar   53  PHE53      -0.0000
     95  N         -7.2480   17.6240   13.1480 N.3    80  THR80      -0.1204
     96  CA        -6.3160   18.3120   14.0720 C.3    80  THR80       0.1979
     97  C         -7.0430   19.6530   14.2810 C.2    80  THR80       0.2460
     98  O         -7.4880   20.2220   13.2500 O.2    80  THR80      -0.2732
     99  CB        -4.8960   18.5640   13.4490 C.3    80  THR80       0.1783
    100  OG1       -4.1330   19.2790   14.5000 O.3    80  THR80      -0.2211
    101  CG2       -4.9940   19.4120   12.1780 C.3    80  THR80       0.0376
    102  N         -7.1490   20.1100   15.5120 N.am   81  PRO81      -0.2717
    103  CA        -7.8340   21.3620   15.8660 C.3    81  PRO81       0.1535
    104  C         -7.1250   22.6440   15.4900 C.2    81  PRO81       0.2598
    105  O         -7.6320   23.8060   15.4990 O.2    81  PRO81      -0.2715
    106  CB        -7.8390   21.3240   17.3890 C.3    81  PRO81       0.0310
    107  CG        -6.5360   20.6050   17.6520 C.3    81  PRO81       0.0237
    108  CD        -6.5680   19.4180   16.6880 C.3    81  PRO81       0.0939
    109  N         -5.8760   22.4040   15.1630 N.am   82  ILE82      -0.1978
    110  CA        -4.9180   23.4760   14.7770 C.3    82  ILE82       0.1596
    111  C         -4.0030   22.8100   13.7520 C.2    82  ILE82       0.2287
    112  O         -3.6370   21.6430   14.0150 O.2    82  ILE82      -0.2864
    113  CB        -4.2350   23.7460   16.1750 C.3    82  ILE82       0.0276
    114  CG1       -3.3700   25.0240   16.1800 C.3    82  ILE82       0.0022
    115  CG2       -3.4510   22.4750   16.6040 C.3    82  ILE82       0.0022
    116  CD1       -4.2420   26.2790   16.4650 C.3    82  ILE82       0.0001
    117  N         -0.7280   21.8270   11.9160 N.3    84  ILE84      -0.1245
    118  CA         0.6200   21.6210   12.4670 C.3    84  ILE84       0.1561
    119  C          1.7510   21.4070   11.4690 C.2    84  ILE84       0.2260
    120  O          1.6170   20.5940   10.5450 O.2    84  ILE84      -0.2867
    121  CB         0.5250   20.3910   13.4900 C.3    84  ILE84       0.0252
    122  CG1       -0.5180   20.8350   14.5480 C.3    84  ILE84       0.0019
    123  CG2        1.8550   19.9920   14.1480 C.3    84  ILE84       0.0019
    124  CD1       -0.8840   19.7440   15.5920 C.3    84  ILE84       0.0001
@<TRIPOS>BOND
     1    55    54    1
     2    55    56    2
     3    54    53    1
     4    54    57    1
     5   120   119    2
     6    51    50   ar
     7    59    57    1
     8    49    50    1
     9    49    46    1
    10    50    52   ar
    11    57    58    1
    12    46    47    1
    13    46    45    1
    14    47    48    2
    15   119   118    1
    16    58    60    1
    17    40    39    2
    18   117   118    1
    19   101    99    1
    20    66    65    1
    21    45    39   am
    22   118   121    1
    23    39    38    1
    24    12    13    1
    25    95    96    1
    26    98    97    2
    27    65    62    1
    28    65    67    1
    29    61    62    1
    30    99    96    1
    31    99   100    1
    32   121   123    1
    33   121   122    1
    34    15    14    2
    35   111   112    2
    36   111   110    1
    37    14    13    1
    38    96    97    1
    39    38    41    1
    40    38    37    1
    41    62    63    1
    42    13    16    1
    43    97   102   am
    44    41    42    1
    45   122   124    1
    46   110   109    1
    47   110   113    1
    48    35    34    2
    49    37    34   am
    50   109   104   am
    51    20    21    1
    52    34    33    1
    53    16    17    1
    54    36    33    1
    55   104   105    2
    56   104   103    1
    57   102   103    1
    58   102   108    1
    59    63    64    2
    60    63    68   am
    61    42    44   ar
    62    42    43   ar
    63    23    22    2
    64   103   106    1
    65   113   114    1
    66   113   115    1
    67   114   116    1
    68    33    32    1
    69    21    24    1
    70    21    22    1
    71    24    25    1
    72    68    69    1
    73   108   107    1
    74    17    19    1
    75    17    18    1
    76    32    30   am
    77    27    25   ar
    78    86    87    2
    79    86    85    1
    80    25    26   ar
    81   106   107    1
    82    90    92   ar
    83    90    89   ar
    84    88    85    1
    85    88    89    1
    86    92    94   ar
    87    69    70    1
    88     4     3    2
    89    85    84    1
    90    71    70    2
    91    89    91   ar
    92    30    31    2
    93    30    29    1
    94    28    29    1
    95     3     2    1
    96    70    72   am
    97    94    93   ar
    98    91    93   ar
    99     5     2    1
   100     5     6    1
   101    72    73    1
   102     2     1    1
   103     7     6    1
   104     7     8    1
   105    10     9    1
   106    73    74    1
   107     8     9    2
   108     9    11    1
   109    74    75    2
   110    74    76   am
   111    76    77    1
   112    79    78    2
   113    78    77    1
   114    77    80    1
   115    80    81    1
   116    80    82    1
   117    81    83    1
