@<TRIPOS>MOLECULE
tmp/1ivqB00.pdb
 113 106 0 0 0
SMALL
GASTEIGER

@<TRIPOS>ATOM
      1  N          1.4210   32.2820   20.9250 N.3     8  ARG8       -0.1245
      2  CA         1.7470   31.1640   20.0370 C.3     8  ARG8        0.1563
      3  C          2.0930   31.6550   18.6290 C.2     8  ARG8        0.2260
      4  O          1.3790   32.5230   18.1070 O.2     8  ARG8       -0.2867
      5  CB         0.5720   30.2060   19.8590 C.3     8  ARG8        0.0307
      6  CG         0.0630   29.4280   21.0380 C.3     8  ARG8        0.0489
      7  CD        -1.2750   28.7920   20.7580 C.3     8  ARG8        0.2205
      8  NE        -1.8740   28.4580   22.0490 N.pl3   8  ARG8       -0.0865
      9  CZ        -3.1490   28.2870   22.3470 C.cat   8  ARG8        0.5346
     10  NH1       -4.1220   28.4050   21.4440 N.pl3   8  ARG8        0.1354
     11  NH2       -3.4760   27.9870   23.6080 N.pl3   8  ARG8        0.1354
     12  N          0.4800   27.0880   12.9830 N.3    23  LEU23      -0.1245
     13  CA         1.3110   27.2270   14.1890 C.3    23  LEU23       0.1561
     14  C          2.7460   26.7520   13.9850 C.2    23  LEU23       0.2260
     15  O          2.9430   25.6190   13.4740 O.2    23  LEU23      -0.2867
     16  CB         0.5770   26.4050   15.2770 C.3    23  LEU23       0.0270
     17  CG         1.4280   26.0940   16.4920 C.3    23  LEU23       0.0019
     18  CD1        1.7170   27.3550   17.2840 C.3    23  LEU23       0.0001
     19  CD2        0.7420   25.0660   17.3650 C.3    23  LEU23       0.0001
     20  N          5.4700   25.0610   15.0630 N.3    25  ASP25      -0.1239
     21  CA         5.7340   24.0070   16.0660 C.3    25  ASP25       0.1674
     22  C          7.0280   23.2380   15.9310 C.2    25  ASP25       0.2266
     23  O          7.0900   22.3520   15.0670 O.2    25  ASP25      -0.2867
     24  CB         4.4920   23.0800   16.0190 C.3    25  ASP25       0.1410
     25  CG         4.2820   22.3230   17.3190 C.2    25  ASP25       0.3668
     26  OD1        5.1600   22.5640   18.1770 O.co2  25  ASP25      -0.2456
     27  OD2        3.3240   21.5570   17.4790 O.co2  25  ASP25      -0.2456
     28  N          8.1210   21.2260   18.0300 N.3    27  GLY27      -0.1210
     29  CA         7.8620   19.9690   18.7140 C.3    27  GLY27       0.1956
     30  C          7.1700   18.9110   17.8850 C.2    27  GLY27       0.2612
     31  O          7.1770   17.7510   18.3380 O.2    27  GLY27      -0.2717
     32  N          6.5560   19.2730   16.7830 N.am   28  ALA28      -0.1965
     33  CA         5.8660   18.3520   15.8700 C.3    28  ALA28       0.1728
     34  C          6.9970   17.8240   14.9860 C.2    28  ALA28       0.2616
     35  O          7.9830   18.5720   14.8420 O.2    28  ALA28      -0.2715
     36  CB         4.8720   19.0910   14.9920 C.3    28  ALA28       0.0334
     37  N          6.8510   16.6230   14.4700 N.am   29  ASP29      -0.1957
     38  CA         7.9150   16.0650   13.6050 C.3    29  ASP29       0.1840
     39  C          7.4200   16.1470   12.1610 C.2    29  ASP29       0.2622
     40  O          8.2330   16.1960   11.2270 O.2    29  ASP29      -0.2715
     41  CB         8.4220   14.7140   14.0360 C.3    29  ASP29       0.1450
     42  CG         9.6040   14.8030   14.9950 C.2    29  ASP29       0.3671
     43  OD1       10.4310   15.7170   14.7130 O.co2  29  ASP29      -0.2456
     44  OD2        9.7210   14.0000   15.9620 O.co2  29  ASP29      -0.2456
     45  N          6.1040   16.1690   12.0960 N.am   30  ASP30      -0.1971
     46  CA         5.3010   16.2290   10.8750 C.3    30  ASP30       0.1709
     47  C          4.3410   17.4160   11.0080 C.2    30  ASP30       0.2293
     48  O          4.3840   18.0810   12.0420 O.2    30  ASP30      -0.2864
     49  CB         4.5630   14.9250   10.6170 C.3    30  ASP30       0.1436
     50  CG         5.4670   13.7370   10.3260 C.2    30  ASP30       0.3671
     51  OD1        6.4360   13.7890    9.5390 O.co2  30  ASP30      -0.2456
     52  OD2        5.1290   12.7040   10.9470 O.co2  30  ASP30      -0.2456
     53  N          0.2400   18.8620   10.2290 N.3    32  ILE32      -0.1245
     54  CA        -1.1650   18.5090    9.9870 C.3    32  ILE32       0.1561
     55  C         -2.0170   19.7570    9.7480 C.2    32  ILE32       0.2260
     56  O         -1.7310   20.7640   10.4220 O.2    32  ILE32      -0.2867
     57  CB        -1.7730   17.7170   11.2140 C.3    32  ILE32       0.0252
     58  CG1       -0.7850   16.6350   11.6640 C.3    32  ILE32       0.0019
     59  CG2       -3.1610   17.1250   10.8150 C.3    32  ILE32       0.0019
     60  CD1       -1.3450   15.5270   12.5860 C.3    32  ILE32       0.0001
     61  N         -1.0270    9.0910   13.9580 N.3    47  VAL47      -0.1231
     62  CA        -0.0130    9.8460   14.7240 C.3    47  VAL47       0.1692
     63  C         -0.4750    9.8470   16.1840 C.2    47  VAL47       0.2593
     64  O         -1.7000    9.7780   16.4160 O.2    47  VAL47      -0.2718
     65  CB         0.0420   11.2560   14.0930 C.3    47  VAL47       0.0266
     66  CG1       -0.8450   12.2940   14.7920 C.3    47  VAL47       0.0020
     67  CG2        1.4590   11.7620   13.8730 C.3    47  VAL47       0.0020
     68  N          0.4640    9.9280   17.1090 N.am   48  GLY48      -0.1942
     69  CA         0.1180    9.9460   18.5600 C.3    48  GLY48       0.2014
     70  C          0.7030   11.2040   19.1880 C.2    48  GLY48       0.2639
     71  O          1.6650   11.7830   18.6730 O.2    48  GLY48      -0.2714
     72  N          0.1290   11.6400   20.2740 N.am   49  GLY49      -0.1939
     73  CA         0.5310   12.8200   21.0390 C.3    49  GLY49       0.2014
     74  C          0.0460   12.5810   22.4750 C.2    49  GLY49       0.2635
     75  O          0.1180   11.4500   22.9930 O.2    49  GLY49      -0.2714
     76  N         -0.4090   13.6660   23.0590 N.am   50  ILE50      -0.2030
     77  CA        -0.9570   13.7420   24.4310 C.3    50  ILE50       0.1282
     78  C         -2.4750   13.5060   24.1940 C.3    50  ILE50       0.2035
     79  O         -2.9550   14.3560   23.3970 O.3    50  ILE50      -0.2185
     80  CB        -0.9180   15.2420   24.9290 C.3    50  ILE50       0.0226
     81  CG1        0.4780   15.7910   25.0960 C.3    50  ILE50       0.0018
     82  CG2       -1.9230   15.5000   26.0620 C.3    50  ILE50       0.0018
     83  CD1        1.5160   15.0610   25.9420 C.3    50  ILE50       0.0001
     84  N         -7.6010   18.5450   13.4520 N.3    80  THR80      -0.1204
     85  CA        -6.9510   19.2480   14.5780 C.3    80  THR80       0.1979
     86  C         -7.6770   20.5820   14.6950 C.2    80  THR80       0.2460
     87  O         -8.1240   21.1080   13.6580 O.2    80  THR80      -0.2732
     88  CB        -5.4260   19.4280   14.1850 C.3    80  THR80       0.1783
     89  OG1       -4.7860   20.1980   15.2300 O.3    80  THR80      -0.2211
     90  CG2       -5.2240   20.1680   12.8650 C.3    80  THR80       0.0376
     91  N         -7.7750   21.1060   15.9030 N.am   81  PRO81      -0.2717
     92  CA        -8.4030   22.4220   16.1390 C.3    81  PRO81       0.1535
     93  C         -7.5410   23.5330   15.5260 C.2    81  PRO81       0.2598
     94  O         -8.0180   24.6050   15.1420 O.2    81  PRO81      -0.2715
     95  CB        -8.3590   22.5810   17.6640 C.3    81  PRO81       0.0310
     96  CG        -7.3400   21.5930   18.1770 C.3    81  PRO81       0.0237
     97  CD        -7.2540   20.4930   17.1550 C.3    81  PRO81       0.0939
     98  N         -6.2480   23.2680   15.4860 N.am   82  ILE82      -0.1978
     99  CA        -5.1540   24.1050   14.9970 C.3    82  ILE82       0.1596
    100  C         -4.1440   23.3680   14.1230 C.2    82  ILE82       0.2287
    101  O         -3.5940   22.3170   14.4700 O.2    82  ILE82      -0.2864
    102  CB        -4.4320   24.7880   16.2500 C.3    82  ILE82       0.0276
    103  CG1       -5.4820   25.7000   16.9120 C.3    82  ILE82       0.0022
    104  CG2       -3.1320   25.5480   15.9180 C.3    82  ILE82       0.0022
    105  CD1       -5.3230   26.1150   18.3780 C.3    82  ILE82       0.0001
    106  N         -0.7300   22.6900   12.2470 N.3    84  ILE84      -0.1245
    107  CA         0.6630   22.6860   12.7140 C.3    84  ILE84       0.1561
    108  C          1.6360   22.5910   11.5420 C.2    84  ILE84       0.2260
    109  O          1.3390   21.8670   10.5900 O.2    84  ILE84      -0.2867
    110  CB         0.8500   21.3650   13.6030 C.3    84  ILE84       0.0252
    111  CG1       -0.2300   21.3590   14.6960 C.3    84  ILE84       0.0019
    112  CG2        2.2970   21.2430   14.1410 C.3    84  ILE84       0.0019
    113  CD1       -0.8880   20.0150   15.0530 C.3    84  ILE84       0.0001
@<TRIPOS>BOND
     1    51    50   ar
     2    55    54    1
     3    55    56    2
     4    54    53    1
     5    54    57    1
     6    50    49    1
     7    50    52   ar
     8   109   108    2
     9    49    46    1
    10    59    57    1
    11    46    47    1
    12    46    45    1
    13    47    48    2
    14    57    58    1
    15    40    39    2
    16   108   107    1
    17    58    60    1
    18    45    39   am
    19    39    38    1
    20   106   107    1
    21   107   110    1
    22    90    88    1
    23    12    13    1
    24    84    85    1
    25    15    14    2
    26   110   112    1
    27   110   111    1
    28    38    41    1
    29    38    37    1
    30    87    86    2
    31    67    65    1
    32    61    62    1
    33    14    13    1
    34    41    42    1
    35    65    62    1
    36    65    66    1
    37   100   101    2
    38   100    99    1
    39    88    85    1
    40    88    89    1
    41    13    16    1
    42    37    34   am
    43    85    86    1
    44    86    91   am
    45   111   113    1
    46    43    42   ar
    47    62    63    1
    48    35    34    2
    49    34    33    1
    50    36    33    1
    51    42    44   ar
    52    99    98    1
    53    99   102    1
    54    20    21    1
    55    23    22    2
    56    94    93    2
    57    16    17    1
    58    98    93   am
    59    93    92    1
    60    33    32    1
    61    91    92    1
    62    91    97    1
    63   104   102    1
    64    22    21    1
    65    24    21    1
    66    24    25    1
    67    92    95    1
    68    63    64    2
    69    63    68   am
    70   102   103    1
    71    17    18    1
    72    17    19    1
    73    32    30   am
    74   103   105    1
    75    68    69    1
    76    97    96    1
    77    25    27   ar
    78    25    26   ar
    79    95    96    1
    80    30    31    2
    81    30    29    1
    82    28    29    1
    83     4     3    2
    84    69    70    1
    85     3     2    1
    86    71    70    2
    87    70    72   am
    88     5     2    1
    89     5     6    1
    90     2     1    1
    91    72    73    1
    92     7     6    1
    93     7     8    1
    94    73    74    1
    95    10     9    1
    96     8     9    2
    97     9    11    1
    98    74    75    2
    99    74    76   am
   100    76    77    1
   101    79    78    1
   102    78    77    1
   103    77    80    1
   104    80    81    1
   105    80    82    1
   106    81    83    1
