@<TRIPOS>MOLECULE
tmp/1ivrA00.pdb
 190 179 0 0 0
SMALL
GASTEIGER

@<TRIPOS>ATOM
      1  N         53.0970   18.4970   31.7490 N.3    13  ASP13      -0.1239
      2  CA        52.6710   18.6340   33.2110 C.3    13  ASP13       0.1674
      3  C         53.7890   18.3830   34.2620 C.2    13  ASP13       0.2266
      4  O         54.7330   17.5460   34.4340 O.2    13  ASP13      -0.2867
      5  CB        51.3880   17.8280   33.3820 C.3    13  ASP13       0.1410
      6  CG        50.6820   18.1370   34.7250 C.2    13  ASP13       0.3668
      7  OD1       50.0350   19.2350   34.6470 O.co2  13  ASP13      -0.2456
      8  OD2       50.8150   17.3390   35.6660 O.co2  13  ASP13      -0.2456
      9  N         53.5500   16.8910   37.0680 N.3    15  ILE15      -0.1231
     10  CA        53.5370   15.6130   37.7110 C.3    15  ILE15       0.1692
     11  C         53.4410   14.5170   36.6810 C.2    15  ILE15       0.2591
     12  O         54.2890   13.6810   36.5810 O.2    15  ILE15      -0.2718
     13  CB        52.3570   15.5920   38.8160 C.3    15  ILE15       0.0266
     14  CG1       52.6250   16.7020   39.8230 C.3    15  ILE15       0.0019
     15  CG2       52.2460   14.1400   39.3160 C.3    15  ILE15       0.0020
     16  CD1       51.8920   16.8670   41.1380 C.3    15  ILE15       0.0001
     17  N         52.3980   14.5810   35.8890 N.am   16  LEU16      -0.1980
     18  CA        51.9540   13.7800   34.7610 C.3    16  LEU16       0.1596
     19  C         53.0200   13.7910   33.7120 C.2    16  LEU16       0.2287
     20  O         53.3550   12.7350   33.1490 O.2    16  LEU16      -0.2864
     21  CB        50.5800   14.3540   34.3000 C.3    16  LEU16       0.0297
     22  CG        49.5010   13.2900   34.5880 C.3    16  LEU16       0.0022
     23  CD1       49.8730   12.4310   35.7880 C.3    16  LEU16       0.0001
     24  CD2       48.1310   13.8340   34.8590 C.3    16  LEU16       0.0001
     25  N         54.0950   10.3180   39.8670 N.3    35  VAL35      -0.1231
     26  CA        52.6620   10.3320   40.2910 C.3    35  VAL35       0.1692
     27  C         52.4620    9.3950   41.4980 C.2    35  VAL35       0.2589
     28  O         53.0600    8.3530   41.8460 O.2    35  VAL35      -0.2718
     29  CB        51.7150   10.0590   39.0990 C.3    35  VAL35       0.0266
     30  CG1       52.4040    9.2050   38.0570 C.3    35  VAL35       0.0020
     31  CG2       50.3470    9.4760   39.4550 C.3    35  VAL35       0.0020
     32  N         51.4080    9.8350   42.2110 N.am   36  GLY36      -0.2014
     33  CA        50.9460    9.1460   43.4440 C.3    36  GLY36       0.1506
     34  C         50.3710    7.7870   43.0390 C.3    36  GLY36       0.2054
     35  O         49.1520    7.7280   43.2380 O.3    36  GLY36      -0.2184
     36  N         36.4840   11.6930   38.7140 N.3   104  SER104     -0.1202
     37  CA        37.3900   11.4060   39.7960 C.3   104  SER104      0.2020
     38  C         37.4570   12.7120   40.5750 C.2   104  SER104      0.2619
     39  O         36.7150   13.6780   40.4890 O.2   104  SER104     -0.2717
     40  CB        38.7250   10.9350   39.3220 C.3   104  SER104      0.2103
     41  OG        39.1150    9.6430   39.8130 O.3   104  SER104     -0.2182
     42  N         38.5020   12.6330   41.3770 N.am  105  GLY105     -0.1942
     43  CA        38.7970   13.7700   42.2770 C.3   105  GLY105      0.2014
     44  C         38.9760   15.0770   41.5170 C.2   105  GLY105      0.2636
     45  O         38.2310   15.9150   41.9680 O.2   105  GLY105     -0.2714
     46  N         39.8030   15.0850   40.4930 N.am  106  THR106     -0.2004
     47  CA        40.0430   16.2490   39.6890 C.3   106  THR106      0.1584
     48  C         38.7390   16.8650   39.1270 C.3   106  THR106      0.2062
     49  O         38.6080   18.1010   39.3440 O.3   106  THR106     -0.2184
     50  CB        40.9750   16.1010   38.4450 C.3   106  THR106      0.1745
     51  OG1       42.1140   15.5070   39.0550 O.3   106  THR106     -0.2212
     52  CG2       41.1910   17.3790   37.6550 C.3   106  THR106      0.0374
     53  N         36.3740   18.1530   41.8500 N.3   109  LEU109     -0.1245
     54  CA        37.0240   19.4600   42.2690 C.3   109  LEU109      0.1561
     55  C         36.5390   20.5760   41.3370 C.2   109  LEU109      0.2260
     56  O         36.0870   21.6840   41.7390 O.2   109  LEU109     -0.2867
     57  CB        38.4980   19.1850   42.4340 C.3   109  LEU109      0.0270
     58  CG        39.5140   19.4250   43.4900 C.3   109  LEU109      0.0019
     59  CD1       38.9570   19.6970   44.9060 C.3   109  LEU109      0.0001
     60  CD2       40.6820   18.4270   43.5870 C.3   109  LEU109      0.0001
     61  N         48.9230   20.5880   46.3730 N.3   133  TRP133     -0.1241
     62  CA        48.8280   19.7380   45.1830 C.3   133  TRP133      0.1605
     63  C         48.9060   20.7780   44.0520 C.2   133  TRP133      0.2264
     64  O         48.0000   21.6740   44.0370 O.2   133  TRP133     -0.2867
     65  CB        47.4900   18.9880   45.0730 C.3   133  TRP133      0.0550
     66  CG        47.6120   18.0930   43.8840 C.ar  133  TRP133      0.0003
     67  CD1       48.7120   17.4590   43.3870 C.ar  133  TRP133      0.0946
     68  CD2       46.5110   17.7170   43.0270 C.ar  133  TRP133      0.0152
     69  NE1       48.3150   16.7380   42.2840 N.ar  133  TRP133     -0.2442
     70  CE2       47.0050   16.8530   42.0330 C.ar  133  TRP133      0.0810
     71  CE3       45.1510   18.1050   43.0010 C.ar  133  TRP133      0.0012
     72  CZ2       46.1670   16.3100   41.0500 C.ar  133  TRP133      0.0191
     73  CZ3       44.3530   17.5700   42.0110 C.ar  133  TRP133      0.0001
     74  CH2       44.8110   16.6520   41.0510 C.ar  133  TRP133      0.0015
     75  N         48.0670   20.8860   40.9860 N.3   135  ASN135     -0.1296
     76  CA        46.8880   21.0520   40.1390 C.3   135  ASN135      0.1339
     77  C         45.7750   21.9240   40.7490 C.3   135  ASN135      0.2014
     78  O         44.9020   22.5120   39.9750 O.3   135  ASN135     -0.2188
     79  CB        46.6070   19.6460   39.5030 C.3   135  ASN135      0.1102
     80  CG        45.7850   19.7810   38.1780 C.2   135  ASN135      0.2623
     81  OD1       45.9790   20.7870   37.4500 O.2   135  ASN135     -0.2716
     82  ND2       44.8240   18.8380   38.0220 N.am  135  ASN135     -0.0877
     83  N         42.9230   19.8240   53.0850 N.3   181  HIS181     -0.1241
     84  CA        42.9670   18.4440   52.5880 C.3   181  HIS181      0.1621
     85  C         42.4940   17.5540   53.7470 C.2   181  HIS181      0.2264
     86  O         42.9600   17.6920   54.9040 O.2   181  HIS181     -0.2867
     87  CB        44.3850   18.1450   52.1970 C.3   181  HIS181      0.0745
     88  CG        45.0540   18.8580   51.0920 C.ar  181  HIS181      0.0817
     89  ND1       45.8260   18.2290   50.1790 N.ar  181  HIS181     -0.2268
     90  CD2       45.2060   20.2180   50.7650 C.ar  181  HIS181      0.1154
     91  CE1       46.3590   19.0900   49.3430 C.ar  181  HIS181      0.1986
     92  NE2       46.0020   20.2740   49.6950 N.ar  181  HIS181     -0.2212
     93  N         49.1630   16.3380   50.6610 N.3   186  ASN186     -0.1240
     94  CA        49.9220   16.2980   49.4310 C.3   186  ASN186      0.1653
     95  C         50.3880   17.7320   49.0620 C.2   186  ASN186      0.2266
     96  O         49.6240   18.6730   48.8610 O.2   186  ASN186     -0.2867
     97  CB        49.0180   15.7490   48.3160 C.3   186  ASN186      0.1155
     98  CG        49.6300   15.5680   46.9400 C.2   186  ASN186      0.2627
     99  OD1       50.7270   15.9920   46.7310 O.2   186  ASN186     -0.2716
    100  ND2       49.1130   14.9030   45.9560 N.am  186  ASN186     -0.0877
    101  N         39.2150   18.4240   50.3210 N.3   214  ASP214     -0.1239
    102  CA        39.7260   17.5470   49.2350 C.3   214  ASP214      0.1674
    103  C         40.0650   16.2160   49.9480 C.2   214  ASP214      0.2266
    104  O         40.9310   16.1730   50.8430 O.2   214  ASP214     -0.2867
    105  CB        40.7830   18.2970   48.4650 C.3   214  ASP214      0.1410
    106  CG        41.4480   17.5200   47.3290 C.2   214  ASP214      0.3668
    107  OD1       40.9940   16.4480   46.8660 O.co2 214  ASP214     -0.2456
    108  OD2       42.5020   18.0720   46.9260 O.co2 214  ASP214     -0.2456
    109  N         41.0530   12.8220   48.6230 N.3   216  ALA216     -0.1231
    110  CA        41.6260   11.9190   47.6260 C.3   216  ALA216      0.1694
    111  C         42.3330   10.8030   48.3590 C.2   216  ALA216      0.2588
    112  O         42.6070    9.7790   47.6540 O.2   216  ALA216     -0.2718
    113  CB        42.5860   12.7610   46.7470 C.3   216  ALA216      0.0304
    114  N         42.6980   10.8770   49.7070 N.am  217  TYR217     -0.2029
    115  CA        43.4180    9.7410   50.3100 C.3   217  TYR217      0.1325
    116  C         42.7660    8.9690   51.4130 C.3   217  TYR217      0.2039
    117  O         43.6230    8.4250   52.1430 O.3   217  TYR217     -0.2185
    118  CB        44.8900   10.1410   50.7970 C.3   217  TYR217      0.0507
    119  CG        45.6570   10.4860   49.5250 C.ar  217  TYR217     -0.0202
    120  CD1       46.1960    9.6060   48.6380 C.ar  217  TYR217     -0.0009
    121  CD2       45.7500   11.8390   49.1580 C.ar  217  TYR217     -0.0009
    122  CE1       46.8930    9.9530   47.4690 C.ar  217  TYR217      0.0417
    123  CE2       46.3670   12.2190   47.9870 C.ar  217  TYR217      0.0417
    124  CZ        46.9470   11.2800   47.1390 C.ar  217  TYR217      0.1957
    125  OH        47.5130   11.8560   46.0450 O.3   217  TYR217     -0.2866
    126  N         37.8650   10.9620   45.4720 N.3   247  SER247     -0.1217
    127  CA        38.5810   10.1450   44.5410 C.3   247  SER247      0.1889
    128  C         38.6870    8.6840   45.0590 C.2   247  SER247      0.2288
    129  O         38.9420    8.3810   46.2690 O.2   247  SER247     -0.2866
    130  CB        39.9580   10.5640   44.0440 C.3   247  SER247      0.2089
    131  OG        40.6420    9.3660   43.4670 O.3   247  SER247     -0.2183
    132  N         40.4980    6.9000   43.0090 N.3   249  ALA249     -0.1231
    133  CA        41.6700    6.5170   42.2510 C.3   249  ALA249      0.1694
    134  C         42.7180    5.7170   42.9770 C.2   249  ALA249      0.2591
    135  O         43.3700    4.6540   42.6960 O.2   249  ALA249     -0.2718
    136  CB        42.2220    7.8010   41.6490 C.3   249  ALA249      0.0304
    137  N         43.0240    6.2260   44.1670 N.am  250  LYS250     -0.1980
    138  CA        44.0640    5.6150   45.0730 C.3   250  LYS250      0.1596
    139  C         43.5610    4.5850   46.0190 C.2   250  LYS250      0.2287
    140  O         43.9720    3.4200   46.1080 O.2   250  LYS250     -0.2864
    141  CB        44.8320    6.7710   45.7410 C.3   250  LYS250      0.0298
    142  CG        45.5870    7.6520   44.7550 C.3   250  LYS250      0.0038
    143  CD        44.7810    8.8480   44.3340 C.3   250  LYS250      0.0206
    144  CE        45.6640    9.8440   43.4790 C.3   250  LYS250      0.1093
    145  NZ        46.6710    8.9310   42.7530 N.3   250  LYS250     -0.1314
    146  N         42.4380    4.2360   39.2250 N.3   255  TYR255     -0.1298
    147  CA        43.0550    5.3570   38.4760 C.3   255  TYR255      0.1290
    148  C         42.3880    5.8520   37.1610 C.3   255  TYR255      0.2013
    149  O         41.6810    6.9300   37.1810 O.3   255  TYR255     -0.2188
    150  CB        44.5510    5.0130   38.2530 C.3   255  TYR255      0.0480
    151  CG        45.3230    4.8230   39.5330 C.ar  255  TYR255     -0.0204
    152  CD1       45.9510    5.8590   40.2180 C.ar  255  TYR255     -0.0009
    153  CD2       45.4110    3.4970   40.0650 C.ar  255  TYR255     -0.0009
    154  CE1       46.6390    5.5640   41.3700 C.ar  255  TYR255      0.0417
    155  CE2       46.0760    3.2310   41.2480 C.ar  255  TYR255      0.0417
    156  CZ        46.7070    4.2600   41.9160 C.ar  255  TYR255      0.1957
    157  OH        47.3940    3.9240   43.0970 O.3   255  TYR255     -0.2866
    158  N         38.3700    6.4070   36.3750 N.3   258  ARG258     -0.1245
    159  CA        37.8730    7.6870   36.8920 C.3   258  ARG258      0.1563
    160  C         36.5450    7.7260   37.6800 C.2   258  ARG258      0.2260
    161  O         35.4710    7.9840   37.0640 O.2   258  ARG258     -0.2867
    162  CB        37.6460    8.5690   35.6600 C.3   258  ARG258      0.0307
    163  CG        38.7960    8.5620   34.6860 C.3   258  ARG258      0.0489
    164  CD        40.1750    8.8560   35.2200 C.3   258  ARG258      0.2205
    165  NE        40.3360   10.3140   35.4880 N.pl3 258  ARG258     -0.0865
    166  CZ        41.0750   10.6890   36.5510 C.cat 258  ARG258      0.5346
    167  NH1       41.5840    9.7700   37.3790 N.pl3 258  ARG258      0.1354
    168  NH2       41.1930   11.9930   36.7660 N.pl3 258  ARG258      0.1354
    169  N         53.4830    9.5860   49.7160 N.3   352  PHE352     -0.1241
    170  CA        54.7480   10.3010   49.4840 C.3   352  PHE352      0.1605
    171  C         55.6280   10.6220   50.6810 C.2   352  PHE352      0.2264
    172  O         55.3930   10.4300   51.9050 O.2   352  PHE352     -0.2867
    173  CB        54.4670   11.6370   48.7960 C.3   352  PHE352      0.0534
    174  CG        53.3730   11.6340   47.7700 C.ar  352  PHE352     -0.0203
    175  CD1       53.6400   11.2650   46.4280 C.ar  352  PHE352     -0.0042
    176  CD2       52.0750   12.0070   48.2200 C.ar  352  PHE352     -0.0042
    177  CE1       52.5850   11.2850   45.5120 C.ar  352  PHE352     -0.0003
    178  CE2       51.0210   11.9350   47.2970 C.ar  352  PHE352     -0.0003
    179  CZ        51.2830   11.6140   45.9500 C.ar  352  PHE352     -0.0000
    180  N         59.5130   15.7370   45.9540 N.3   378  ARG378     -0.1301
    181  CA        58.5010   14.7620   46.3870 C.3   378  ARG378      0.1248
    182  C         58.7320   13.3670   45.8990 C.3   378  ARG378      0.2009
    183  O         58.9710   13.3570   44.6470 O.3   378  ARG378     -0.2188
    184  CB        57.1370   15.3360   45.8950 C.3   378  ARG378      0.0254
    185  CG        56.0490   14.5170   46.6450 C.3   378  ARG378      0.0485
    186  CD        54.6800   14.9730   46.1780 C.3   378  ARG378      0.2205
    187  NE        54.2280   14.3300   44.9700 N.pl3 378  ARG378     -0.0865
    188  CZ        53.1720   14.4220   44.1800 C.cat 378  ARG378      0.5346
    189  NH1       52.1390   15.2040   44.4150 N.pl3 378  ARG378      0.1354
    190  NH2       53.0650   13.7160   43.0480 N.pl3 378  ARG378      0.1354
@<TRIPOS>BOND
     1     1     2    1
     2    20    19    2
     3     2     5    1
     4     2     3    1
     5     5     6    1
     6    19    18    1
     7     3     4    2
     8    21    22    1
     9    21    18    1
    10    22    24    1
    11    22    23    1
    12     7     6   ar
    13   163   164    1
    14   163   162    1
    15     6     8   ar
    16    18    17    1
    17   164   165    1
    18   165   166    2
    19   162   159    1
    20    17    11   am
    21   158   159    1
    22   166   168    1
    23   166   167    1
    24    12    11    2
    25    11    10    1
    26   159   160    1
    27   161   160    2
    28     9    10    1
    29   148   149    1
    30   148   147    1
    31    81    80    2
    32    52    50    1
    33    10    13    1
    34    82    80   am
    35    30    29    1
    36    80    79    1
    37   150   147    1
    38   150   151    1
    39    50    51    1
    40    50    47    1
    41   147   146    1
    42    36    37    1
    43    13    15    1
    44    13    14    1
    45    29    31    1
    46    29    26    1
    47    48    49    1
    48    48    47    1
    49    40    37    1
    50    40    41    1
    51    79    76    1
    52   151   153   ar
    53   151   152   ar
    54    47    46    1
    55    37    38    1
    56    14    16    1
    57    25    26    1
    58    78    77    1
    59   153   155   ar
    60    76    77    1
    61    76    75    1
    62   152   154   ar
    63    26    27    1
    64    39    38    2
    65    46    44   am
    66    38    42   am
    67    72    74   ar
    68    72    70   ar
    69    74    73   ar
    70   155   156   ar
    71    55    56    2
    72    55    54    1
    73   154   156   ar
    74    42    43    1
    75    27    28    2
    76    27    32   am
    77    44    45    2
    78    44    43    1
    79   136   133    1
    80    53    54    1
    81   156   157    1
    82    73    71   ar
    83    70    69   ar
    84    70    68   ar
    85    32    33    1
    86   133   134    1
    87   133   132    1
    88    54    57    1
    89    69    67   ar
    90    57    58    1
    91   135   134    2
    92   145   144    1
    93   134   137   am
    94    71    68   ar
    95    68    66   ar
    96    34    35    1
    97    34    33    1
    98   190   188    1
    99    67    66   ar
   100   131   130    1
   101   144   143    1
   102    58    60    1
   103    58    59    1
   104    66    65    1
   105    64    63    2
   106   130   127    1
   107    63    62    1
   108   137   138    1
   109   188   189    1
   110   188   187    2
   111   143   142    1
   112   127   128    1
   113   127   126    1
   114   183   182    1
   115   142   141    1
   116   187   186    1
   117   128   129    2
   118    65    62    1
   119   138   141    1
   120   138   139    1
   121    62    61    1
   122   177   179   ar
   123   177   175   ar
   124   184   181    1
   125   184   185    1
   126   182   181    1
   127   179   178   ar
   128   180   181    1
   129   100    98   am
   130   139   140    2
   131   125   124    1
   132   186   185    1
   133   175   174   ar
   134    99    98    2
   135   113   110    1
   136   107   106   ar
   137   108   106   ar
   138    98    97    1
   139   124   122   ar
   140   124   123   ar
   141   178   176   ar
   142   106   105    1
   143   122   120   ar
   144   110   111    1
   145   110   109    1
   146   112   111    2
   147   174   176   ar
   148   174   173    1
   149   123   121   ar
   150    97    94    1
   151   111   114   am
   152   105   102    1
   153   120   119   ar
   154   173   170    1
   155    96    95    2
   156    95    94    1
   157   121   119   ar
   158   102   103    1
   159   102   101    1
   160    91    92   ar
   161    91    89   ar
   162    94    93    1
   163   170   169    1
   164   170   171    1
   165   119   118    1
   166    92    90   ar
   167   114   115    1
   168   103   104    2
   169    89    88   ar
   170   115   118    1
   171   115   116    1
   172   171   172    2
   173    90    88   ar
   174    88    87    1
   175   116   117    1
   176    87    84    1
   177    84    83    1
   178    84    85    1
   179    85    86    2
