@<TRIPOS>MOLECULE
tmp/1iw1A01.pdb
 179 168 0 0 0
SMALL
GASTEIGER

@<TRIPOS>ATOM
      1  N         36.1010   -7.0240   10.7550 N.3     8  ALA8       -0.1245
      2  CA        35.4010   -7.4800    9.5580 C.3     8  ALA8        0.1562
      3  C         34.5640   -8.7200    9.8720 C.2     8  ALA8        0.2260
      4  O         33.3970   -8.8250    9.5070 O.2     8  ALA8       -0.2867
      5  CB        36.3720   -7.7310    8.4420 C.3     8  ALA8        0.0290
      6  N         30.3910   -9.0990   10.1790 N.3    12  LYS12      -0.1245
      7  CA        29.6920  -10.1150    9.4140 C.3    12  LYS12       0.1561
      8  C         28.8140  -10.9760   10.3300 C.2    12  LYS12       0.2260
      9  O         27.6320  -11.2070   10.0530 O.2    12  LYS12      -0.2867
     10  CB        30.7010  -10.9510    8.6360 C.3    12  LYS12       0.0271
     11  CG        30.1050  -11.8790    7.6250 C.3    12  LYS12       0.0035
     12  CD        31.2200  -12.5440    6.8510 C.3    12  LYS12       0.0206
     13  CE        30.7310  -13.2380    5.6390 C.3    12  LYS12       0.1093
     14  NZ        30.0870  -14.4270    6.1140 N.3    12  LYS12      -0.1314
     15  N         20.9700   -9.3210    8.1080 N.3    19  HIS19      -0.1241
     16  CA        21.1840   -9.5020    6.6710 C.3    19  HIS19       0.1621
     17  C         20.1880  -10.4980    6.0900 C.2    19  HIS19       0.2264
     18  O         19.5420  -10.2280    5.0730 O.2    19  HIS19      -0.2867
     19  CB        22.6280   -9.9320    6.3930 C.3    19  HIS19       0.0745
     20  CG        22.8900  -10.2680    4.9600 C.ar   19  HIS19       0.0817
     21  ND1       22.6800  -11.5310    4.4540 N.ar   19  HIS19      -0.2268
     22  CD2       23.3070   -9.5130    3.9190 C.ar   19  HIS19       0.1154
     23  CE1       22.9900  -11.5480    3.1710 C.ar   19  HIS19       0.1986
     24  NE2       23.3250  -10.3210    2.8020 N.ar   19  HIS19      -0.2212
     25  N         16.7620   -8.8690    5.7300 N.3    22  ALA22      -0.1231
     26  CA        16.6800   -7.9290    4.6180 C.3    22  ALA22       0.1694
     27  C         16.6510   -8.6760    3.2900 C.2    22  ALA22       0.2591
     28  O         15.8080   -8.3870    2.4470 O.2    22  ALA22      -0.2718
     29  CB        17.8600   -6.9740    4.6820 C.3    22  ALA22       0.0304
     30  N         17.6140   -9.5800    3.0960 N.am   23  GLU23      -0.1979
     31  CA        17.7500  -10.3740    1.8740 C.3    23  GLU23       0.1602
     32  C         16.4950  -11.1140    1.4980 C.2    23  GLU23       0.2287
     33  O         16.1720  -11.2150    0.3220 O.2    23  GLU23      -0.2864
     34  CB        18.9270  -11.3580    2.0480 C.3    23  GLU23       0.0415
     35  CG        18.9730  -12.6270    1.2270 C.3    23  GLU23       0.1163
     36  CD        20.2330  -13.4170    1.5450 C.2    23  GLU23       0.3649
     37  OE1       20.5920  -13.5900    2.7550 O.co2  23  GLU23      -0.2457
     38  OE2       20.8750  -13.8630    0.5950 O.co2  23  GLU23      -0.2457
     39  N         11.9360   -8.1710   -2.0870 N.3    28  MET28      -0.1245
     40  CA        13.1510   -8.5490   -2.7840 C.3    28  MET28       0.1570
     41  C         13.0660   -9.9810   -3.2850 C.2    28  MET28       0.2261
     42  O         13.5380  -10.2840   -4.3720 O.2    28  MET28      -0.2867
     43  CB        14.3850   -8.3420   -1.8870 C.3    28  MET28       0.0387
     44  CG        15.7460   -8.6640   -2.5420 C.3    28  MET28       0.0595
     45  SD        16.0480   -7.8950   -4.1720 S.3    28  MET28      -0.1393
     46  CE        16.0100   -6.2490   -3.7370 C.3    28  MET28       0.0692
     47  N         13.4950  -10.9000   -7.2540 N.3    32  LEU32      -0.1245
     48  CA        14.5650  -11.7360   -7.7810 C.3    32  LEU32       0.1561
     49  C         14.0930  -13.0200   -8.4320 C.2    32  LEU32       0.2260
     50  O         14.7970  -13.5520   -9.2940 O.2    32  LEU32      -0.2867
     51  CB        15.5850  -12.0540   -6.6910 C.3    32  LEU32       0.0270
     52  CG        16.3100  -10.8120   -6.1940 C.3    32  LEU32       0.0019
     53  CD1       17.3180  -11.2210   -5.1340 C.3    32  LEU32       0.0001
     54  CD2       16.9430  -10.0510   -7.3090 C.3    32  LEU32       0.0001
     55  N         29.6590    0.0980    4.9550 N.3   129  TYR129     -0.1227
     56  CA        29.8530   -1.3430    4.8510 C.3   129  TYR129      0.1736
     57  C         28.5550   -2.0220    4.4060 C.2   129  TYR129      0.2595
     58  O         28.5380   -2.8000    3.4310 O.2   129  TYR129     -0.2718
     59  CB        30.2830   -1.8910    6.2190 C.3   129  TYR129      0.0548
     60  CG        30.0460   -3.3780    6.4190 C.ar  129  TYR129     -0.0200
     61  CD1       30.9040   -4.3250    5.8780 C.ar  129  TYR129     -0.0009
     62  CD2       28.9630   -3.8150    7.1670 C.ar  129  TYR129     -0.0009
     63  CE1       30.6950   -5.6810    6.0840 C.ar  129  TYR129      0.0417
     64  CE2       28.7320   -5.1620    7.3690 C.ar  129  TYR129      0.0417
     65  CZ        29.5980   -6.0940    6.8000 C.ar  129  TYR129      0.1957
     66  OH        29.3780   -7.4610    6.9810 O.3   129  TYR129     -0.2866
     67  N         27.4600   -1.7310    5.0730 N.am  130  VAL130     -0.1966
     68  CA        26.1880   -2.4000    4.7940 C.3   130  VAL130      0.1727
     69  C         25.7650   -2.1600    3.3400 C.2   130  VAL130      0.2616
     70  O         25.4130   -3.1020    2.6200 O.2   130  VAL130     -0.2715
     71  CB        25.1170   -1.9910    5.8170 C.3   130  VAL130      0.0290
     72  CG1       23.7250   -2.4800    5.4520 C.3   130  VAL130      0.0023
     73  CG2       25.4890   -2.5820    7.1410 C.3   130  VAL130      0.0023
     74  N         25.8180   -0.9200    2.8730 N.am  131  ARG131     -0.1977
     75  CA        25.3800   -0.6680    1.5090 C.3   131  ARG131      0.1597
     76  C         26.3850   -1.1170    0.4700 C.2   131  ARG131      0.2287
     77  O         26.0180   -1.8950   -0.4310 O.2   131  ARG131     -0.2864
     78  CB        25.0250    0.7990    1.2940 C.3   131  ARG131      0.0334
     79  CG        23.6170    1.2070    1.7750 C.3   131  ARG131      0.0492
     80  CD        22.4500    0.2930    1.3830 C.3   131  ARG131      0.2205
     81  NE        22.4540   -0.0090   -0.0340 N.pl3 131  ARG131     -0.0865
     82  CZ        21.5150   -0.6830   -0.6880 C.cat 131  ARG131      0.5346
     83  NH1       20.4070   -1.0560   -0.0840 N.pl3 131  ARG131      0.1354
     84  NH2       21.7030   -0.9790   -1.9860 N.pl3 131  ARG131      0.1354
     85  N         29.2770   -2.9600    0.5010 N.3   133  LEU133     -0.1231
     86  CA        29.6830   -4.3680    0.3960 C.3   133  LEU133      0.1693
     87  C         28.4980   -5.2220   -0.0880 C.2   133  LEU133      0.2592
     88  O         28.6900   -6.2310   -0.8150 O.2   133  LEU133     -0.2718
     89  CB        30.2890   -4.8860    1.6880 C.3   133  LEU133      0.0284
     90  CG        31.4970   -5.7820    1.5110 C.3   133  LEU133      0.0019
     91  CD1       32.4440   -5.3420    0.5260 C.3   133  LEU133      0.0001
     92  CD2       32.2180   -6.0580    2.8090 C.3   133  LEU133      0.0001
     93  N         27.2780   -4.8040    0.2430 N.am  134  GLY134     -0.1957
     94  CA        26.0800   -5.4540   -0.2550 C.3   134  GLY134      0.1869
     95  C         26.0010   -5.3100   -1.7740 C.2   134  GLY134      0.2309
     96  O         25.7220   -6.2840   -2.4860 O.2   134  GLY134     -0.2863
     97  N         28.4010   -4.8420   -3.8800 N.3   136  LEU136     -0.1231
     98  CA        29.5080   -5.6080   -4.4270 C.3   136  LEU136      0.1693
     99  C         29.3040   -7.1160   -4.2410 C.2   136  LEU136      0.2593
    100  O         30.1090   -7.9350   -4.7430 O.2   136  LEU136     -0.2718
    101  CB        30.8020   -5.2050   -3.7520 C.3   136  LEU136      0.0284
    102  CG        31.2720   -3.7880   -4.0310 C.3   136  LEU136      0.0019
    103  CD1       32.4520   -3.4310   -3.1150 C.3   136  LEU136      0.0001
    104  CD2       31.6150   -3.5710   -5.4960 C.3   136  LEU136      0.0001
    105  N         28.2130   -7.4940   -3.6020 N.am  137  SER137     -0.1938
    106  CA        27.9320   -8.8970   -3.2930 C.3   137  SER137      0.2055
    107  C         26.5610   -9.2750   -3.8640 C.2   137  SER137      0.2643
    108  O         26.4680   -9.6120   -5.0510 O.2   137  SER137     -0.2714
    109  CB        28.0350   -9.1140   -1.7630 C.3   137  SER137      0.2130
    110  OG        29.3400   -8.7890   -1.3140 O.3   137  SER137     -0.2179
    111  N         25.5100   -9.2130   -3.0520 N.am  138  GLY138     -0.1954
    112  CA        24.1430   -9.4630   -3.4900 C.3   138  GLY138      0.1869
    113  C         23.7240   -8.6350   -4.6910 C.2   138  GLY138      0.2309
    114  O         22.9320   -9.0640   -5.5410 O.2   138  GLY138     -0.2863
    115  N         23.9640  -10.2230   -8.0550 N.3   141  VAL141     -0.1231
    116  CA        22.8920  -11.1750   -8.3720 C.3   141  VAL141      0.1692
    117  C         21.6620  -10.3840   -8.8260 C.2   141  VAL141      0.2591
    118  O         20.9600  -10.7760   -9.7660 O.2   141  VAL141     -0.2718
    119  CB        22.5180  -12.0410   -7.1410 C.3   141  VAL141      0.0266
    120  CG1       21.3300  -12.9700   -7.4180 C.3   141  VAL141      0.0020
    121  CG2       23.7260  -12.7800   -6.6850 C.3   141  VAL141      0.0020
    122  N         21.3540   -9.2770   -8.1330 N.am  142  ILE142     -0.1980
    123  CA        20.2320   -8.4460   -8.5170 C.3   142  ILE142      0.1595
    124  C         20.3730   -8.0010   -9.9700 C.2   142  ILE142      0.2287
    125  O         19.4210   -8.1190  -10.7300 O.2   142  ILE142     -0.2864
    126  CB        20.0470   -7.2030   -7.5530 C.3   142  ILE142      0.0276
    127  CG1       19.7810   -7.6690   -6.1370 C.3   142  ILE142      0.0022
    128  CG2       18.9400   -6.2940   -8.0430 C.3   142  ILE142      0.0022
    129  CD1       19.8410   -6.5460   -5.1020 C.3   142  ILE142      0.0001
    130  N         36.9860   -6.2970   -2.1920 N.3   172  LYS172     -0.1245
    131  CA        36.3380   -6.5900   -0.9270 C.3   172  LYS172      0.1561
    132  C         37.2970   -7.0750    0.1340 C.2   172  LYS172      0.2260
    133  O         37.1410   -6.7910    1.3230 O.2   172  LYS172     -0.2867
    134  CB        35.1930   -7.6070   -1.0890 C.3   172  LYS172      0.0271
    135  CG        33.9840   -7.0290   -1.7810 C.3   172  LYS172      0.0035
    136  CD        32.7460   -7.9080   -1.5860 C.3   172  LYS172      0.0206
    137  CE        32.7990   -9.0810   -2.4890 C.3   172  LYS172      0.1093
    138  NZ        31.5890   -9.9920   -2.3740 N.3   172  LYS172     -0.1314
    139  N         37.8960   -5.2520    3.7500 N.3   176  ARG176     -0.1245
    140  CA        37.8790   -5.8730    5.0660 C.3   176  ARG176      0.1563
    141  C         39.1980   -5.6480    5.8350 C.2   176  ARG176      0.2260
    142  O         39.1910   -5.4650    7.0520 O.2   176  ARG176     -0.2867
    143  CB        37.5750   -7.3650    4.9690 C.3   176  ARG176      0.0307
    144  CG        36.2630   -7.6760    4.4120 C.3   176  ARG176      0.0489
    145  CD        35.9040   -9.1450    4.5510 C.3   176  ARG176      0.2205
    146  NE        34.6870   -9.4070    3.8300 N.pl3 176  ARG176     -0.0865
    147  CZ        34.6150   -9.7750    2.5390 C.cat 176  ARG176      0.5346
    148  NH1       35.6990   -9.9730    1.8200 N.pl3 176  ARG176      0.1354
    149  NH2       33.4350   -9.9420    1.9840 N.pl3 176  ARG176      0.1354
    150  N         20.8390   -2.3960    8.4660 N.3   200  PHE200     -0.1241
    151  CA        20.1060   -3.4850    7.8510 C.3   200  PHE200      0.1605
    152  C         18.6230   -3.3700    8.1530 C.2   200  PHE200      0.2264
    153  O         17.7820   -3.6750    7.3180 O.2   200  PHE200     -0.2867
    154  CB        20.5990   -4.8360    8.3580 C.3   200  PHE200      0.0534
    155  CG        21.7600   -5.3930    7.5760 C.ar  200  PHE200     -0.0203
    156  CD1       23.0210   -5.4380    8.0840 C.ar  200  PHE200     -0.0042
    157  CD2       21.5810   -5.8330    6.2810 C.ar  200  PHE200     -0.0042
    158  CE1       24.0780   -5.9570    7.3390 C.ar  200  PHE200     -0.0003
    159  CE2       22.6040   -6.3800    5.5650 C.ar  200  PHE200     -0.0003
    160  CZ        23.8470   -6.4210    6.0540 C.ar  200  PHE200     -0.0000
    161  N         17.0780   -0.9430    5.8460 N.3   203  ASN203     -0.1240
    162  CA        16.9650   -1.5300    4.5040 C.3   203  ASN203      0.1653
    163  C         15.8020   -2.5280    4.3900 C.2   203  ASN203      0.2266
    164  O         15.1180   -2.5840    3.3670 O.2   203  ASN203     -0.2867
    165  CB        18.2860   -2.1120    4.0530 C.3   203  ASN203      0.1155
    166  CG        19.1920   -1.0590    3.4650 C.2   203  ASN203      0.2627
    167  OD1       19.0070   -0.6450    2.3170 O.2   203  ASN203     -0.2716
    168  ND2       20.1640   -0.5650    4.2590 N.am  203  ASN203     -0.0877
    169  N         12.2570   -2.2070    1.9130 N.3   207  PHE207     -0.1241
    170  CA        11.6420   -3.2510    1.0990 C.3   207  PHE207      0.1605
    171  C         10.1970   -3.4720    1.5070 C.2   207  PHE207      0.2264
    172  O          9.3280   -3.6440    0.6490 O.2   207  PHE207     -0.2867
    173  CB        12.3880   -4.5540    1.2320 C.3   207  PHE207      0.0534
    174  CG        13.7710   -4.5850    0.6310 C.ar  207  PHE207     -0.0203
    175  CD1       14.0780   -3.9890   -0.5750 C.ar  207  PHE207     -0.0042
    176  CD2       14.7500   -5.3200    1.2460 C.ar  207  PHE207     -0.0042
    177  CE1       15.3460   -4.0960   -1.1270 C.ar  207  PHE207     -0.0003
    178  CE2       16.0310   -5.4160    0.7200 C.ar  207  PHE207     -0.0003
    179  CZ        16.3270   -4.8080   -0.4840 C.ar  207  PHE207     -0.0000
@<TRIPOS>BOND
     1   125   124    2
     2   124   123    1
     3   118   117    2
     4    50    49    2
     5   117   116    1
     6   117   122   am
     7   123   122    1
     8   123   126    1
     9    49    48    1
    10   116   115    1
    11   116   119    1
    12   128   126    1
    13    48    47    1
    14    48    51    1
    15   126   127    1
    16   120   119    1
    17    54    52    1
    18   119   121    1
    19    51    52    1
    20    52    53    1
    21   127   129    1
    22   114   113    2
    23   104   102    1
    24   108   107    2
    25   100    99    2
    26   113   112    1
    27    98    99    1
    28    98    97    1
    29    98   101    1
    30    42    41    2
    31    99   105   am
    32    45    46    1
    33    45    44    1
    34   102   101    1
    35   102   103    1
    36   107   106    1
    37   107   111   am
    38   105   106    1
    39   112   111    1
    40   106   109    1
    41    41    40    1
    42    40    39    1
    43    40    43    1
    44    44    43    1
    45   137   138    1
    46   137   136    1
    47    96    95    2
    48   130   131    1
    49    84    82    1
    50   135   136    1
    51   135   134    1
    52    95    94    1
    53   109   110    1
    54   177   175   ar
    55   177   179   ar
    56   134   131    1
    57   131   132    1
    58    88    87    2
    59    82    83    1
    60    82    81    2
    61   175   174   ar
    62   179   178   ar
    63    77    76    2
    64    94    93    1
    65    87    93   am
    66    87    86    1
    67    81    80    1
    68   132   133    2
    69    33    32    2
    70    86    85    1
    71    86    89    1
    72    76    75    1
    73    91    90    1
    74    38    36   ar
    75   174   173    1
    76   174   176   ar
    77   172   171    2
    78   178   176   ar
    79   170   173    1
    80   170   171    1
    81   170   169    1
    82    35    36    1
    83    35    34    1
    84    78    75    1
    85    78    79    1
    86    80    79    1
    87    32    31    1
    88    75    74    1
    89    90    89    1
    90    90    92    1
    91    36    37   ar
    92   148   147    1
    93    31    34    1
    94    31    30    1
    95   149   147    1
    96   167   166    2
    97    28    27    2
    98   147   146    2
    99    70    69    2
   100    24    23   ar
   101    24    22   ar
   102    74    69   am
   103    30    27   am
   104    23    21   ar
   105    27    26    1
   106    69    68    1
   107   164   163    2
   108    58    57    2
   109   166   165    1
   110   166   168   am
   111   139   140    1
   112   146   145    1
   113    22    20   ar
   114   165   162    1
   115   163   162    1
   116    57    56    1
   117    57    67   am
   118   144   145    1
   119   144   143    1
   120    21    20   ar
   121   162   161    1
   122    26    29    1
   123    26    25    1
   124    68    67    1
   125    68    71    1
   126    56    55    1
   127    56    59    1
   128    20    19    1
   129   143   140    1
   130   140   141    1
   131    18    17    2
   132    72    71    1
   133   159   160   ar
   134   159   157   ar
   135    13    14    1
   136    13    12    1
   137    71    73    1
   138   141   142    2
   139    61    63   ar
   140    61    60   ar
   141   160   158   ar
   142    63    65   ar
   143    17    16    1
   144    59    60    1
   145   157   155   ar
   146    19    16    1
   147    60    62   ar
   148    16    15    1
   149    65    66    1
   150    65    64   ar
   151    12    11    1
   152    62    64   ar
   153   153   152    2
   154   158   156   ar
   155   155   156   ar
   156   155   154    1
   157    11    10    1
   158   151   152    1
   159   151   154    1
   160   151   150    1
   161     5     2    1
   162    10     7    1
   163     7     6    1
   164     7     8    1
   165     4     3    2
   166     2     3    1
   167     2     1    1
   168     9     8    2
