@<TRIPOS>MOLECULE
tmp/1iw9A02.pdb
 123 115 0 0 0
SMALL
GASTEIGER

@<TRIPOS>ATOM
      1  N         28.3850   34.6410   25.3840 N.3    17  GLY17      -0.1225
      2  CA        28.3670   36.0580   25.6980 C.3    17  GLY17       0.1811
      3  C         27.4110   36.3620   26.8450 C.2    17  GLY17       0.2280
      4  O         27.7890   37.0320   27.8180 O.2    17  GLY17      -0.2866
      5  N         28.7070   35.0230   30.0780 N.3    20  THR20      -0.1203
      6  CA        29.6900   35.8380   30.7860 C.3    20  THR20       0.1994
      7  C         28.9950   36.9640   31.5430 C.2    20  THR20       0.2617
      8  O         29.2700   37.2070   32.7210 O.2    20  THR20      -0.2717
      9  CB        30.6950   36.4810   29.8270 C.3    20  THR20       0.1784
     10  OG1       31.3060   35.4720   29.0250 O.3    20  THR20      -0.2211
     11  CG2       31.7660   37.1870   30.5950 C.3    20  THR20       0.0376
     12  N         28.0940   37.6490   30.8460 N.am   21  LEU21      -0.1979
     13  CA        27.3430   38.7700   31.3970 C.3    21  LEU21       0.1596
     14  C         26.6830   38.4540   32.7300 C.2    21  LEU21       0.2287
     15  O         26.8030   39.2060   33.7070 O.2    21  LEU21      -0.2864
     16  CB        26.2880   39.2050   30.3830 C.3    21  LEU21       0.0297
     17  CG        26.3930   40.6550   29.8920 C.3    21  LEU21       0.0022
     18  CD1       27.8650   41.1120   29.8260 C.3    21  LEU21       0.0001
     19  CD2       25.7080   40.7710   28.5300 C.3    21  LEU21       0.0001
     20  N         29.2430   37.7980   35.5620 N.3    24  LEU24      -0.1231
     21  CA        29.8540   39.0600   35.9550 C.3    24  LEU24       0.1693
     22  C         28.9440   39.7720   36.9390 C.2    24  LEU24       0.2591
     23  O         29.3700   40.1710   38.0230 O.2    24  LEU24      -0.2718
     24  CB        30.0750   39.9570   34.7370 C.3    24  LEU24       0.0284
     25  CG        31.4420   39.8730   34.0590 C.3    24  LEU24       0.0019
     26  CD1       31.4400   40.7110   32.7920 C.3    24  LEU24       0.0001
     27  CD2       32.5160   40.3540   35.0240 C.3    24  LEU24       0.0001
     28  N         27.6810   39.9130   36.5560 N.am   25  VAL25      -0.1980
     29  CA        26.6990   40.5900   37.3910 C.3    25  VAL25       0.1595
     30  C         26.4480   39.8270   38.6880 C.2    25  VAL25       0.2287
     31  O         26.3710   40.4160   39.7660 O.2    25  VAL25      -0.2864
     32  CB        25.3580   40.7700   36.6300 C.3    25  VAL25       0.0276
     33  CG1       24.3530   41.4750   37.4980 C.3    25  VAL25       0.0022
     34  CG2       25.5860   41.5690   35.3640 C.3    25  VAL25       0.0022
     35  N         28.4390   37.8770   40.3070 N.3    27  GLY27      -0.1210
     36  CA        29.5780   37.9320   41.2090 C.3    27  GLY27       0.1956
     37  C         29.9550   39.3250   41.6710 C.2    27  GLY27       0.2611
     38  O         30.9330   39.5070   42.4050 O.2    27  GLY27      -0.2717
     39  N         29.1770   40.3080   41.2290 N.am   28  MET28      -0.1979
     40  CA        29.3950   41.7080   41.5790 C.3    28  MET28       0.1605
     41  C         29.5530   41.9560   43.0780 C.2    28  MET28       0.2287
     42  O         30.5770   42.4770   43.5200 O.2    28  MET28      -0.2864
     43  CB        28.2280   42.5610   41.0800 C.3    28  MET28       0.0413
     44  CG        28.1360   42.7390   39.5790 C.3    28  MET28       0.0598
     45  SD        28.7080   44.3680   39.0890 S.3    28  MET28      -0.1393
     46  CE        27.8020   45.3920   40.2780 C.3    28  MET28       0.0692
     47  N         30.0310   39.9130   45.6910 N.3    30  VAL30      -0.1231
     48  CA        30.5560   38.8220   46.4890 C.3    30  VAL30       0.1692
     49  C         31.8020   39.2740   47.2230 C.2    30  VAL30       0.2592
     50  O         32.7340   39.7990   46.6130 O.2    30  VAL30      -0.2718
     51  CB        30.9000   37.6230   45.6050 C.3    30  VAL30       0.0266
     52  CG1       31.3970   36.4620   46.4660 C.3    30  VAL30       0.0020
     53  CG2       29.6750   37.2240   44.7980 C.3    30  VAL30       0.0020
     54  N         31.8110   39.0700   48.5370 N.am   31  SER31      -0.1952
     55  CA        32.9450   39.4570   49.3690 C.3    31  SER31       0.1924
     56  C         33.7550   38.2470   49.8320 C.2    31  SER31       0.2314
     57  O         34.9590   38.3570   50.0720 O.2    31  SER31      -0.2863
     58  CB        32.4570   40.2420   50.5870 C.3    31  SER31       0.2116
     59  OG        31.6010   39.4430   51.3820 O.3    31  SER31      -0.2180
     60  N         35.0410   34.3570   45.5710 N.3    36  LYS36      -0.1245
     61  CA        35.6980   35.2790   44.6430 C.3    36  LYS36       0.1561
     62  C         36.5300   34.5620   43.5820 C.2    36  LYS36       0.2260
     63  O         36.4610   34.8930   42.3970 O.2    36  LYS36      -0.2867
     64  CB        36.6220   36.2410   45.3910 C.3    36  LYS36       0.0271
     65  CG        37.4760   37.1080   44.4530 C.3    36  LYS36       0.0035
     66  CD        38.7830   37.5700   45.1020 C.3    36  LYS36       0.0206
     67  CE        38.5530   38.5500   46.2440 C.3    36  LYS36       0.1093
     68  NZ        37.9360   39.8200   45.7940 N.3    36  LYS36      -0.1314
     69  N         34.2600   32.6690   41.2390 N.3    39  TYR39      -0.1227
     70  CA        33.6600   33.5300   40.2380 C.3    39  TYR39       0.1736
     71  C         34.6760   33.8650   39.1570 C.2    39  TYR39       0.2595
     72  O         34.3570   33.8530   37.9650 O.2    39  TYR39      -0.2718
     73  CB        33.1050   34.8150   40.8740 C.3    39  TYR39       0.0548
     74  CG        31.6610   34.6830   41.3290 C.ar   39  TYR39      -0.0200
     75  CD1       31.3430   34.4250   42.6620 C.ar   39  TYR39      -0.0009
     76  CD2       30.6220   34.7120   40.4010 C.ar   39  TYR39      -0.0009
     77  CE1       30.0270   34.1910   43.0580 C.ar   39  TYR39       0.0417
     78  CE2       29.3030   34.4760   40.7820 C.ar   39  TYR39       0.0417
     79  CZ        29.0100   34.2140   42.1110 C.ar   39  TYR39       0.1957
     80  OH        27.7030   33.9610   42.4810 O.3    39  TYR39      -0.2866
     81  N         35.9070   34.1450   39.5640 N.am   40  ALA40      -0.1980
     82  CA        36.9410   34.4800   38.6030 C.3    40  ALA40       0.1597
     83  C         37.1710   33.3340   37.6130 C.2    40  ALA40       0.2287
     84  O         37.0570   33.5130   36.3910 O.2    40  ALA40      -0.2864
     85  CB        38.2220   34.8110   39.3270 C.3    40  ALA40       0.0319
     86  N         33.8750   32.6620   35.5600 N.3    43  THR43      -0.1203
     87  CA        33.4700   33.7220   34.6270 C.3    43  THR43       0.1994
     88  C         34.4040   33.7850   33.4080 C.2    43  THR43       0.2617
     89  O         33.9730   34.0700   32.2830 O.2    43  THR43      -0.2717
     90  CB        33.4690   35.1000   35.2990 C.3    43  THR43       0.1784
     91  OG1       32.7540   35.0270   36.5340 O.3    43  THR43      -0.2211
     92  CG2       32.7930   36.1240   34.4060 C.3    43  THR43       0.0376
     93  N         35.6840   33.5030   33.6470 N.am   44  LEU44      -0.1979
     94  CA        36.7030   33.5210   32.6020 C.3    44  LEU44       0.1596
     95  C         36.5080   32.4650   31.5290 C.2    44  LEU44       0.2287
     96  O         37.0000   32.6030   30.4100 O.2    44  LEU44      -0.2864
     97  CB        38.0830   33.3190   33.2170 C.3    44  LEU44       0.0297
     98  CG        39.0160   34.5230   33.1730 C.3    44  LEU44       0.0022
     99  CD1       40.3400   34.1400   33.8270 C.3    44  LEU44       0.0001
    100  CD2       39.2210   34.9710   31.7270 C.3    44  LEU44       0.0001
    101  N         33.7780   33.6480   28.8770 N.3    47  ALA47      -0.1245
    102  CA        34.3100   34.8430   28.2350 C.3    47  ALA47       0.1562
    103  C         35.2070   34.4060   27.0830 C.2    47  ALA47       0.2260
    104  O         35.0450   34.8580   25.9480 O.2    47  ALA47      -0.2867
    105  CB        35.1020   35.6590   29.2230 C.3    47  ALA47       0.0290
    106  N         33.4290   32.8820   24.3640 N.3    50  PHE50      -0.1227
    107  CA        32.7540   33.8970   23.5810 C.3    50  PHE50       0.1736
    108  C         33.6420   34.3320   22.4210 C.2    50  PHE50       0.2596
    109  O         33.2300   34.2830   21.2660 O.2    50  PHE50      -0.2718
    110  CB        32.4190   35.1180   24.4380 C.3    50  PHE50       0.0547
    111  CG        31.9350   36.3010   23.6360 C.ar   50  PHE50      -0.0202
    112  CD1       30.6930   36.2740   23.0030 C.ar   50  PHE50      -0.0042
    113  CD2       32.7410   37.4290   23.4770 C.ar   50  PHE50      -0.0042
    114  CE1       30.2640   37.3540   22.2230 C.ar   50  PHE50      -0.0003
    115  CE2       32.3240   38.5110   22.7010 C.ar   50  PHE50      -0.0003
    116  CZ        31.0870   38.4740   22.0730 C.ar   50  PHE50      -0.0000
    117  N         34.8670   34.7450   22.7330 N.am   51  THR51      -0.1953
    118  CA        35.7990   35.2100   21.7150 C.3    51  THR51       0.1897
    119  C         36.1540   34.1470   20.6850 C.2    51  THR51       0.2313
    120  O         36.3290   34.4500   19.5030 O.2    51  THR51      -0.2863
    121  CB        37.0970   35.7040   22.3440 C.3    51  THR51       0.1794
    122  OG1       37.7580   34.6040   22.9830 O.3    51  THR51      -0.2208
    123  CG2       36.8070   36.8110   23.3620 C.3    51  THR51       0.0378
@<TRIPOS>BOND
     1   120   119    2
     2   119   118    1
     3   109   108    2
     4   118   121    1
     5   118   117    1
     6   116   114   ar
     7   116   115   ar
     8   114   112   ar
     9   121   122    1
    10   121   123    1
    11   108   117   am
    12   108   107    1
    13   115   113   ar
    14   112   111   ar
    15   113   111   ar
    16   107   106    1
    17   107   110    1
    18   111   110    1
    19     1     2    1
    20     2     3    1
    21   104   103    2
    22     3     4    2
    23   103   102    1
    24   102   101    1
    25   102   105    1
    26    19    17    1
    27    10     9    1
    28    18    17    1
    29     9    11    1
    30     9     6    1
    31    17    16    1
    32     5     6    1
    33    16    13    1
    34    96    95    2
    35     6     7    1
    36    12    13    1
    37    12     7   am
    38    13    14    1
    39    95    94    1
    40     7     8    2
    41   100    98    1
    42    89    88    2
    43    94    97    1
    44    94    93    1
    45    14    15    2
    46    26    25    1
    47    98    97    1
    48    98    99    1
    49    88    93   am
    50    88    87    1
    51    25    24    1
    52    25    27    1
    53    92    90    1
    54    87    90    1
    55    87    86    1
    56    24    21    1
    57    90    91    1
    58    34    32    1
    59    20    21    1
    60    21    22    1
    61    84    83    2
    62    28    22   am
    63    28    29    1
    64    32    29    1
    65    32    33    1
    66    22    23    2
    67    29    30    1
    68    83    82    1
    69    72    71    2
    70    82    85    1
    71    82    81    1
    72    30    31    2
    73    45    44    1
    74    45    46    1
    75    71    81   am
    76    71    70    1
    77    44    43    1
    78    70    73    1
    79    70    69    1
    80    35    36    1
    81    76    78   ar
    82    76    74   ar
    83    78    79   ar
    84    73    74    1
    85    43    40    1
    86    36    37    1
    87    39    40    1
    88    39    37   am
    89    74    75   ar
    90    40    41    1
    91    37    38    2
    92    79    80    1
    93    79    77   ar
    94    63    62    2
    95    75    77   ar
    96    41    42    2
    97    62    61    1
    98    65    66    1
    99    65    64    1
   100    61    64    1
   101    61    60    1
   102    53    51    1
   103    66    67    1
   104    51    52    1
   105    51    48    1
   106    47    48    1
   107    68    67    1
   108    48    49    1
   109    50    49    2
   110    49    54   am
   111    54    55    1
   112    55    56    1
   113    55    58    1
   114    56    57    2
   115    58    59    1
