@<TRIPOS>MOLECULE
tmp/1iweB01.pdb
 159 151 0 0 0
SMALL
GASTEIGER

@<TRIPOS>ATOM
      1  N         34.5030    9.5420    9.8510 N.3    17  ASP17      -0.1225
      2  CA        33.6280   10.2390    8.9190 C.3    17  ASP17       0.1805
      3  C         32.9230    9.2540    7.9990 C.2    17  ASP17       0.2598
      4  O         32.7830    9.5210    6.8060 O.2    17  ASP17      -0.2718
      5  CB        34.4340   11.2290    8.0660 C.3    17  ASP17       0.1424
      6  CG        35.4540   11.9980    8.8770 C.2    17  ASP17       0.3668
      7  OD1       35.0480   12.7160    9.8110 O.co2  17  ASP17      -0.2456
      8  OD2       36.6600   11.8780    8.5840 O.co2  17  ASP17      -0.2456
      9  N         32.4900    8.1190    8.5430 N.am   18  GLU18      -0.1965
     10  CA        31.7930    7.1190    7.7410 C.3    18  GLU18       0.1733
     11  C         30.3020    7.4250    7.6380 C.2    18  GLU18       0.2617
     12  O         29.6350    6.9610    6.7090 O.2    18  GLU18      -0.2715
     13  CB        31.9630    5.7180    8.3370 C.3    18  GLU18       0.0429
     14  CG        33.3970    5.2090    8.3580 C.3    18  GLU18       0.1163
     15  CD        34.1380    5.5700    9.6340 C.2    18  GLU18       0.3649
     16  OE1       33.6610    6.4520   10.3880 O.co2  18  GLU18      -0.2457
     17  OE2       35.2070    4.9730    9.8800 O.co2  18  GLU18      -0.2457
     18  N         29.7910    8.2060    8.5940 N.am   19  GLY19      -0.1940
     19  CA        28.3790    8.5540    8.6230 C.3    19  GLY19       0.2014
     20  C         27.7190    7.9180    9.8320 C.2    19  GLY19       0.2639
     21  O         26.5920    7.4210    9.7610 O.2    19  GLY19      -0.2714
     22  N         28.4220    7.9470   10.9580 N.am   20  LYS20      -0.1963
     23  CA        27.9330    7.3380   12.1880 C.3    20  LYS20       0.1728
     24  C         26.7950    8.0960   12.8710 C.2    20  LYS20       0.2617
     25  O         25.9200    7.4790   13.4860 O.2    20  LYS20      -0.2715
     26  CB        29.1060    7.1380   13.1570 C.3    20  LYS20       0.0311
     27  CG        30.2450    6.3080   12.5570 C.3    20  LYS20       0.0038
     28  CD        31.3460    5.9990   13.5740 C.3    20  LYS20       0.0206
     29  CE        32.1990    7.2170   13.9030 C.3    20  LYS20       0.1093
     30  NZ        33.1310    7.5940   12.8100 N.3    20  LYS20      -0.1314
     31  N         26.8040    9.4230   12.7770 N.am   21  GLY21      -0.1940
     32  CA        25.7380   10.1990   13.3930 C.3    21  GLY21       0.2014
     33  C         24.3680    9.7390   12.9190 C.2    21  GLY21       0.2638
     34  O         23.4220    9.6090   13.7020 O.2    21  GLY21      -0.2714
     35  N         24.2620    9.4790   11.6230 N.am   22  LYS22      -0.1977
     36  CA        23.0100    9.0340   11.0290 C.3    22  LYS22       0.1596
     37  C         22.5500    7.6770   11.5730 C.2    22  LYS22       0.2287
     38  O         21.3830    7.5070   11.9340 O.2    22  LYS22      -0.2864
     39  CB        23.1550    8.9720    9.5050 C.3    22  LYS22       0.0298
     40  CG        21.9780    8.3380    8.8020 C.3    22  LYS22       0.0038
     41  CD        22.0990    8.4320    7.2910 C.3    22  LYS22       0.0206
     42  CE        21.0340    7.5620    6.6270 C.3    22  LYS22       0.1093
     43  NZ        19.8060    7.5020    7.4870 N.3    22  LYS22      -0.1314
     44  N         34.2230   13.9370   17.9180 N.3    43  ALA43      -0.1231
     45  CA        33.4230   12.9270   17.2410 C.3    43  ALA43       0.1694
     46  C         32.9410   13.4820   15.9000 C.2    43  ALA43       0.2593
     47  O         33.1110   12.8520   14.8570 O.2    43  ALA43      -0.2718
     48  CB        32.2260   12.5440   18.1150 C.3    43  ALA43       0.0304
     49  N         32.3310   14.6650   15.9410 N.am   44  GLY44      -0.1942
     50  CA        31.8340   15.2970   14.7310 C.3    44  GLY44       0.2014
     51  C         30.7400   14.5250   14.0180 C.2    44  GLY44       0.2639
     52  O         30.6720   14.5420   12.7920 O.2    44  GLY44      -0.2714
     53  N         29.8800   13.8480   14.7730 N.am   45  HIS45      -0.1959
     54  CA        28.7910   13.0810   14.1750 C.3    45  HIS45       0.1787
     55  C         27.6680   13.9980   13.6870 C.2    45  HIS45       0.2620
     56  O         27.2790   14.9410   14.3750 O.2    45  HIS45      -0.2715
     57  CB        28.2650   12.0610   15.1820 C.3    45  HIS45       0.0785
     58  CG        29.2340   10.9550   15.4750 C.ar   45  HIS45       0.0821
     59  ND1       29.0360   10.0360   16.4820 N.ar   45  HIS45      -0.2267
     60  CD2       30.4080   10.6200   14.8870 C.ar   45  HIS45       0.1154
     61  CE1       30.0460    9.1840   16.5050 C.ar   45  HIS45       0.1986
     62  NE2       30.8930    9.5160   15.5460 N.ar   45  HIS45      -0.2212
     63  N         27.1480   13.7120   12.4980 N.am   46  THR46      -0.1951
     64  CA        26.1040   14.5410   11.9000 C.3    46  THR46       0.1897
     65  C         24.7210   13.8930   11.8670 C.2    46  THR46       0.2313
     66  O         24.5530   12.7570   11.4120 O.2    46  THR46      -0.2863
     67  CB        26.5110   14.9540   10.4630 C.3    46  THR46       0.1794
     68  OG1       27.7220   15.7180   10.5240 O.3    46  THR46      -0.2208
     69  CG2       25.4290   15.7980    9.7980 C.3    46  THR46       0.0378
     70  N         20.6280   14.5930   10.7480 N.3    48  VAL48      -0.1245
     71  CA        19.6950   15.4000    9.9720 C.3    48  VAL48       0.1561
     72  C         18.2740   14.8940   10.1340 C.2    48  VAL48       0.2260
     73  O         17.9230   13.8280    9.6260 O.2    48  VAL48      -0.2867
     74  CB        20.0320   15.3790    8.4760 C.3    48  VAL48       0.0252
     75  CG1       18.9690   16.1640    7.6980 C.3    48  VAL48       0.0019
     76  CG2       21.4100   15.9710    8.2480 C.3    48  VAL48       0.0019
     77  N         20.0260   20.1480   10.8300 N.3    53  GLU53      -0.1245
     78  CA        21.2540   19.3740   10.7890 C.3    53  GLU53       0.1567
     79  C         22.0650   19.6530   12.0540 C.2    53  GLU53       0.2260
     80  O         22.5520   20.7670   12.2610 O.2    53  GLU53      -0.2867
     81  CB        22.0610   19.7320    9.5410 C.3    53  GLU53       0.0388
     82  CG        23.4070   19.0340    9.4530 C.3    53  GLU53       0.1160
     83  CD        23.9840   19.0640    8.0520 C.2    53  GLU53       0.3649
     84  OE1       25.2020   18.8300    7.9030 O.co2  53  GLU53      -0.2457
     85  OE2       23.2140   19.3140    7.0990 O.co2  53  GLU53      -0.2457
     86  N         30.6950   13.4870   -1.9910 N.3   300  GLY300     -0.1210
     87  CA        30.5950   13.0660   -0.6040 C.3   300  GLY300      0.1956
     88  C         30.8380   14.1990    0.3820 C.2   300  GLY300      0.2611
     89  O         30.8340   13.9760    1.6020 O.2   300  GLY300     -0.2717
     90  N         31.0380   15.4130   -0.1360 N.am  301  HIS301     -0.1975
     91  CA        31.3020   16.5820    0.7120 C.3   301  HIS301      0.1656
     92  C         32.3690   16.2490    1.7550 C.2   301  HIS301      0.2291
     93  O         32.2370   16.6110    2.9200 O.2   301  HIS301     -0.2864
     94  CB        30.0250   17.0240    1.4310 C.3   301  HIS301      0.0771
     95  CG        29.0110   17.6530    0.5290 C.ar  301  HIS301      0.0820
     96  ND1       27.7950   18.1160    0.9870 N.ar  301  HIS301     -0.2267
     97  CD2       29.0290   17.8950   -0.8030 C.ar  301  HIS301      0.1154
     98  CE1       27.1080   18.6160   -0.0260 C.ar  301  HIS301      0.1986
     99  NE2       27.8340   18.4940   -1.1230 N.ar  301  HIS301     -0.2212
    100  N         39.4020   15.9940    2.3980 N.3   311  ARG311     -0.1245
    101  CA        39.7480   14.6690    2.8650 C.3   311  ARG311      0.1563
    102  C         40.2240   13.8400    1.6790 C.2   311  ARG311      0.2260
    103  O         39.7380   13.9990    0.5580 O.2   311  ARG311     -0.2867
    104  CB        38.5300   14.0230    3.5280 C.3   311  ARG311      0.0307
    105  CG        38.0020   14.8330    4.7060 C.3   311  ARG311      0.0489
    106  CD        37.2790   13.9580    5.7090 C.3   311  ARG311      0.2205
    107  NE        35.8340   14.0040    5.5370 N.pl3 311  ARG311     -0.0865
    108  CZ        35.0190   14.7800    6.2420 C.cat 311  ARG311      0.5346
    109  NH1       35.4980   15.5860    7.1840 N.pl3 311  ARG311      0.1354
    110  NH2       33.7170   14.7430    6.0000 N.pl3 311  ARG311      0.1354
    111  N         27.1440    2.8670    4.1870 N.3   336  THR336     -0.1203
    112  CA        26.7310    4.2470    3.9680 C.3   336  THR336      0.1994
    113  C         27.2480    4.9470    2.7130 C.2   336  THR336      0.2617
    114  O         28.2220    4.5240    2.0970 O.2   336  THR336     -0.2717
    115  CB        27.1150    5.1040    5.1980 C.3   336  THR336      0.1784
    116  OG1       28.5390    5.2320    5.2600 O.3   336  THR336     -0.2211
    117  CG2       26.6340    4.4300    6.4870 C.3   336  THR336      0.0376
    118  N         26.5740    6.0390    2.3610 N.am  337  LYS337     -0.1979
    119  CA        26.9090    6.8520    1.2000 C.3   337  LYS337      0.1596
    120  C         26.9310    6.0830   -0.1200 C.2   337  LYS337      0.2287
    121  O         27.7620    6.3390   -0.9920 O.2   337  LYS337     -0.2864
    122  CB        28.2510    7.5640    1.4150 C.3   337  LYS337      0.0298
    123  CG        28.2540    8.5320    2.5900 C.3   337  LYS337      0.0038
    124  CD        29.3090    9.6000    2.4080 C.3   337  LYS337      0.0206
    125  CE        29.2830   10.6000    3.5480 C.3   337  LYS337      0.1093
    126  NZ        30.2100   11.7390    3.3030 N.3   337  LYS337     -0.1314
    127  N         24.7600    6.3520   -2.3200 N.3   339  ASP339     -0.1225
    128  CA        24.3330    7.3330   -3.3170 C.3   339  ASP339      0.1805
    129  C         25.4920    8.0560   -4.0020 C.2   339  ASP339      0.2597
    130  O         25.3940    8.4170   -5.1730 O.2   339  ASP339     -0.2718
    131  CB        23.3770    8.3470   -2.6750 C.3   339  ASP339      0.1424
    132  CG        23.9620    9.0030   -1.4330 C.2   339  ASP339      0.3668
    133  OD1       24.3400   10.1930   -1.5230 O.co2 339  ASP339     -0.2456
    134  OD2       24.0450    8.3310   -0.3740 O.co2 339  ASP339     -0.2456
    135  N         26.5950    8.2560   -3.2850 N.am  340  ILE340     -0.1980
    136  CA        27.7510    8.9350   -3.8690 C.3   340  ILE340      0.1595
    137  C         28.2500    8.2090   -5.1210 C.2   340  ILE340      0.2287
    138  O         28.8180    8.8250   -6.0240 O.2   340  ILE340     -0.2864
    139  CB        28.9200    9.0550   -2.8520 C.3   340  ILE340      0.0276
    140  CG1       28.6970   10.2480   -1.9110 C.3   340  ILE340      0.0022
    141  CG2       30.2360    9.2700   -3.5910 C.3   340  ILE340      0.0022
    142  CD1       27.5990   10.0460   -0.8710 C.3   340  ILE340      0.0001
    143  N         22.6760    3.1750    3.4400 N.3   419  GLY419     -0.1225
    144  CA        22.3870    4.5950    3.4510 C.3   419  GLY419      0.1811
    145  C         22.5440    5.2360    2.0880 C.2   419  GLY419      0.2280
    146  O         23.5290    5.0010    1.3890 O.2   419  GLY419     -0.2866
    147  N         21.5780    8.7450    1.8200 N.3   421  GLY421     -0.1210
    148  CA        21.3890   10.1660    2.0620 C.3   421  GLY421      0.1956
    149  C         21.6690   10.5810    3.4950 C.2   421  GLY421      0.2611
    150  O         21.7190    9.7390    4.3960 O.2   421  GLY421     -0.2717
    151  N         21.8600   11.8820    3.7030 N.am  422  LYS422     -0.1979
    152  CA        22.1430   12.4210    5.0290 C.3   422  LYS422      0.1596
    153  C         20.9760   12.2320    5.9930 C.2   422  LYS422      0.2287
    154  O         21.1710   11.8440    7.1410 O.2   422  LYS422     -0.2864
    155  CB        22.4800   13.9170    4.9330 C.3   422  LYS422      0.0298
    156  CG        23.8200   14.2250    4.2760 C.3   422  LYS422      0.0038
    157  CD        23.8830   15.6680    3.7720 C.3   422  LYS422      0.0206
    158  CE        23.9650   16.6980    4.8930 C.3   422  LYS422      0.1093
    159  NZ        25.2900   16.7180    5.5880 N.3   422  LYS422     -0.1314
@<TRIPOS>BOND
     1   138   137    2
     2   130   129    2
     3   137   136    1
     4   129   128    1
     5   129   135   am
     6   136   135    1
     7   136   139    1
     8   141   139    1
     9   128   131    1
    10   128   127    1
    11   139   140    1
    12   131   132    1
    13    86    87    1
    14   140   142    1
    15   133   132   ar
    16   132   134   ar
    17    99    97   ar
    18    99    98   ar
    19   121   120    2
    20    97    95   ar
    21    87    88    1
    22    90    88   am
    23    90    91    1
    24   120   119    1
    25    98    96   ar
    26    88    89    2
    27    95    96   ar
    28    95    94    1
    29   103   102    2
    30    91    94    1
    31    91    92    1
    32   119   122    1
    33   119   118    1
    34   146   145    2
    35   122   123    1
    36   102   101    1
    37    92    93    2
    38   147   148    1
    39   148   149    1
    40   145   144    1
    41   114   113    2
    42   118   113   am
    43   100   101    1
    44   124   123    1
    45   124   125    1
    46   113   112    1
    47   101   104    1
    48   126   125    1
    49   143   144    1
    50   149   151   am
    51   149   150    2
    52   104   105    1
    53   151   152    1
    54   157   156    1
    55   157   158    1
    56   112   111    1
    57   112   115    1
    58   156   155    1
    59   105   106    1
    60   158   159    1
    61   155   152    1
    62   152   153    1
    63   115   116    1
    64   115   117    1
    65   107   106    1
    66   107   108    2
    67   153   154    2
    68   110   108    1
    69   108   109    1
    70    42    41    1
    71    42    43    1
    72    12    11    2
    73     4     3    2
    74    85    83   ar
    75    41    40    1
    76    11    10    1
    77    11    18   am
    78    75    74    1
    79    10    13    1
    80    10     9    1
    81    84    83   ar
    82     3     9   am
    83     3     2    1
    84    83    82    1
    85     5     6    1
    86     5     2    1
    87    76    74    1
    88    13    14    1
    89    14    15    1
    90    74    71    1
    91     8     6   ar
    92    18    19    1
    93    19    20    1
    94    40    39    1
    95     6     7   ar
    96     2     1    1
    97    82    81    1
    98    39    36    1
    99    81    78    1
   100    73    72    2
   101    15    17   ar
   102    15    16   ar
   103    21    20    2
   104    69    67    1
   105    20    22   am
   106    71    72    1
   107    71    70    1
   108    67    68    1
   109    67    64    1
   110    78    77    1
   111    78    79    1
   112    22    23    1
   113    36    37    1
   114    36    35    1
   115    66    65    2
   116    37    38    2
   117    35    33   am
   118    65    64    1
   119    64    63    1
   120    79    80    2
   121    23    24    1
   122    23    26    1
   123    63    55   am
   124    27    26    1
   125    27    28    1
   126    31    24   am
   127    31    32    1
   128    52    51    2
   129    30    29    1
   130    24    25    2
   131    33    32    1
   132    33    34    2
   133    28    29    1
   134    55    54    1
   135    55    56    2
   136    51    50    1
   137    51    53   am
   138    54    53    1
   139    54    57    1
   140    50    49    1
   141    47    46    2
   142    60    58   ar
   143    60    62   ar
   144    57    58    1
   145    58    59   ar
   146    62    61   ar
   147    46    49   am
   148    46    45    1
   149    59    61   ar
   150    45    44    1
   151    45    48    1
