@<TRIPOS>MOLECULE
tmp/1iweB00.pdb
 182 174 0 0 0
SMALL
GASTEIGER

@<TRIPOS>ATOM
      1  N         38.4910    5.0270    8.6450 N.3    15  TRP15      -0.1227
      2  CA        39.2610    6.1260    9.2370 C.3    15  TRP15       0.1737
      3  C         38.3830    7.2920    9.7060 C.2    15  TRP15       0.2596
      4  O         38.8160    8.4450    9.7240 O.2    15  TRP15      -0.2718
      5  CB        40.2890    6.6500    8.2350 C.3    15  TRP15       0.0564
      6  CG        41.6040    5.9510    8.2680 C.ar   15  TRP15       0.0003
      7  CD1       42.4930    5.9320    9.3010 C.ar   15  TRP15       0.0946
      8  CD2       42.2230    5.2350    7.1880 C.ar   15  TRP15       0.0152
      9  NE1       43.6360    5.2570    8.9310 N.ar   15  TRP15      -0.2442
     10  CE2       43.4970    4.8180    7.6400 C.ar   15  TRP15       0.0810
     11  CE3       41.8270    4.9100    5.8800 C.ar   15  TRP15       0.0012
     12  CZ2       44.3840    4.0900    6.8280 C.ar   15  TRP15       0.0191
     13  CZ3       42.7080    4.1890    5.0740 C.ar   15  TRP15       0.0001
     14  CH2       43.9720    3.7880    5.5540 C.ar   15  TRP15       0.0015
     15  N         37.1470    6.9920   10.0790 N.am   16  GLY16      -0.1942
     16  CA        36.2560    8.0390   10.5460 C.3    16  GLY16       0.2014
     17  C         35.4310    8.6790    9.4470 C.2    16  GLY16       0.2638
     18  O         35.6200    8.3990    8.2640 O.2    16  GLY16      -0.2714
     19  N         34.5030    9.5420    9.8510 N.am   17  ASP17      -0.1971
     20  CA        33.6280   10.2390    8.9190 C.3    17  ASP17       0.1709
     21  C         32.9230    9.2540    7.9990 C.2    17  ASP17       0.2293
     22  O         32.7830    9.5210    6.8060 O.2    17  ASP17      -0.2864
     23  CB        34.4340   11.2290    8.0660 C.3    17  ASP17       0.1436
     24  CG        35.4540   11.9980    8.8770 C.2    17  ASP17       0.3671
     25  OD1       35.0480   12.7160    9.8110 O.co2  17  ASP17      -0.2456
     26  OD2       36.6600   11.8780    8.5840 O.co2  17  ASP17      -0.2456
     27  N         35.7140   15.3220   19.6180 N.3    42  ASN42      -0.1240
     28  CA        36.0610   15.4850   18.2090 C.3    42  ASN42       0.1653
     29  C         35.3460   14.4090   17.3880 C.2    42  ASN42       0.2266
     30  O         35.7900   14.0180   16.3110 O.2    42  ASN42      -0.2867
     31  CB        37.5830   15.4350   17.9910 C.3    42  ASN42       0.1155
     32  CG        38.1790   14.0640   18.2440 C.2    42  ASN42       0.2627
     33  OD1       37.4900   13.1320   18.6750 O.2    42  ASN42      -0.2716
     34  ND2       39.4810   13.9340   17.9800 N.am   42  ASN42      -0.0877
     35  N         48.6050   20.3520   23.0890 N.3   119  ASP119     -0.1239
     36  CA        48.3680   19.5630   21.8840 C.3   119  ASP119      0.1674
     37  C         48.9040   20.3910   20.7190 C.2   119  ASP119      0.2266
     38  O         49.7610   19.9370   19.9590 O.2   119  ASP119     -0.2867
     39  CB        46.8690   19.3130   21.6990 C.3   119  ASP119      0.1410
     40  CG        46.5720   18.2180   20.6810 C.2   119  ASP119      0.3668
     41  OD1       47.4330   17.9520   19.8130 O.co2 119  ASP119     -0.2456
     42  OD2       45.4650   17.6330   20.7450 O.co2 119  ASP119     -0.2456
     43  N         51.4590   14.9070   13.6680 N.3   134  ILE134     -0.1231
     44  CA        50.4780   13.8220   13.7270 C.3   134  ILE134      0.1692
     45  C         49.1420   14.2170   13.0960 C.2   134  ILE134      0.2593
     46  O         48.3830   13.3600   12.6440 O.2   134  ILE134     -0.2718
     47  CB        50.2310   13.3760   15.1940 C.3   134  ILE134      0.0266
     48  CG1       51.4310   12.5810   15.7090 C.3   134  ILE134      0.0019
     49  CG2       48.9780   12.5260   15.2890 C.3   134  ILE134      0.0020
     50  CD1       51.8160   11.2800   14.9470 C.3   134  ILE134      0.0001
     51  N         48.8590   15.5140   13.0670 N.am  135  GLY135     -0.1942
     52  CA        47.6170   15.9920   12.4850 C.3   135  GLY135      0.2014
     53  C         46.4150   15.8750   13.4060 C.2   135  GLY135      0.2640
     54  O         45.3010   15.6170   12.9420 O.2   135  GLY135     -0.2714
     55  N         46.6330   16.0660   14.7070 N.am  136  THR136     -0.1936
     56  CA        45.5470   15.9810   15.6870 C.3   136  THR136      0.2028
     57  C         44.5580   17.1200   15.4820 C.2   136  THR136      0.2643
     58  O         44.8430   18.0750   14.7510 O.2   136  THR136     -0.2714
     59  CB        46.0660   16.0710   17.1430 C.3   136  THR136      0.1808
     60  OG1       46.3590   17.4390   17.4670 O.3   136  THR136     -0.2208
     61  CG2       47.3280   15.2210   17.3180 C.3   136  THR136      0.0379
     62  N         43.4010   17.0210   16.1330 N.am  137  THR137     -0.1936
     63  CA        42.3820   18.0570   16.0230 C.3   137  THR137      0.2028
     64  C         42.6510   19.1840   17.0260 C.2   137  THR137      0.2642
     65  O         41.8770   20.1390   17.1280 O.2   137  THR137     -0.2714
     66  CB        40.9650   17.4820   16.2600 C.3   137  THR137      0.1808
     67  OG1       40.8870   16.9010   17.5660 O.3   137  THR137     -0.2208
     68  CG2       40.6430   16.4230   15.2210 C.3   137  THR137      0.0379
     69  N         43.7490   19.0560   17.7670 N.am  138  LYS138     -0.1963
     70  CA        44.1650   20.0530   18.7550 C.3   138  LYS138      0.1728
     71  C         43.1650   20.3190   19.8770 C.2   138  LYS138      0.2616
     72  O         43.0940   21.4340   20.3990 O.2   138  LYS138     -0.2715
     73  CB        44.5120   21.3760   18.0510 C.3   138  LYS138      0.0311
     74  CG        45.6850   21.2500   17.0860 C.3   138  LYS138      0.0038
     75  CD        46.0300   22.5730   16.4190 C.3   138  LYS138      0.0206
     76  CE        47.2370   22.4240   15.4930 C.3   138  LYS138      0.1093
     77  NZ        47.6790   23.7310   14.9270 N.3   138  LYS138     -0.1314
     78  N         42.4050   19.2930   20.2470 N.am  139  LYS139     -0.1977
     79  CA        41.4130   19.4030   21.3110 C.3   139  LYS139      0.1596
     80  C         41.9820   18.8600   22.6250 C.2   139  LYS139      0.2287
     81  O         41.2280   18.5380   23.5420 O.2   139  LYS139     -0.2864
     82  CB        40.1480   18.6110   20.9530 C.3   139  LYS139      0.0298
     83  CG        39.4590   19.0160   19.6650 C.3   139  LYS139      0.0038
     84  CD        38.8620   20.4010   19.7660 C.3   139  LYS139      0.0206
     85  CE        37.8700   20.6590   18.6330 C.3   139  LYS139      0.1093
     86  NZ        36.7260   19.6990   18.6540 N.3   139  LYS139     -0.1314
     87  N         43.0990   15.9970   23.4600 N.3   141  ILE141     -0.1231
     88  CA        42.7560   14.6160   23.7940 C.3   141  ILE141      0.1692
     89  C         43.9840   13.7850   24.1640 C.2   141  ILE141      0.2592
     90  O         44.0000   13.1110   25.1930 O.2   141  ILE141     -0.2718
     91  CB        42.0410   13.9210   22.6120 C.3   141  ILE141      0.0266
     92  CG1       40.8500   14.7630   22.1470 C.3   141  ILE141      0.0019
     93  CG2       41.6060   12.5220   23.0150 C.3   141  ILE141      0.0020
     94  CD1       40.2690   14.3660   20.7960 C.3   141  ILE141      0.0001
     95  N         45.0040   13.8270   23.3100 N.am  142  GLY142     -0.1957
     96  CA        46.2240   13.0770   23.5570 C.3   142  GLY142      0.1869
     97  C         46.8560   13.4160   24.8930 C.2   142  GLY142      0.2309
     98  O         47.0820   12.5280   25.7110 O.2   142  GLY142     -0.2863
     99  N         35.3190    8.3020   16.5820 N.3   230  ASN230     -0.1240
    100  CA        36.4980    8.0040   15.7770 C.3   230  ASN230      0.1653
    101  C         36.2740    6.6960   15.0120 C.2   230  ASN230      0.2266
    102  O         35.1390    6.3900   14.6570 O.2   230  ASN230     -0.2867
    103  CB        37.7280    7.9240   16.6840 C.3   230  ASN230      0.1155
    104  CG        37.7270    9.0120   17.7460 C.2   230  ASN230      0.2627
    105  OD1       37.4960    8.7420   18.9220 O.2   230  ASN230     -0.2716
    106  ND2       37.9570   10.2550   17.3290 N.am  230  ASN230     -0.0877
    107  N         41.8290    4.3790   13.7160 N.3   234  LEU234     -0.1245
    108  CA        42.2680    5.5460   14.4790 C.3   234  LEU234      0.1561
    109  C         42.5110    5.0870   15.9290 C.2   234  LEU234      0.2260
    110  O         43.0230    5.8420   16.7620 O.2   234  LEU234     -0.2867
    111  CB        41.2030    6.6570   14.4440 C.3   234  LEU234      0.0270
    112  CG        40.8290    7.2440   13.0740 C.3   234  LEU234      0.0019
    113  CD1       39.6180    8.1580   13.2000 C.3   234  LEU234      0.0001
    114  CD2       42.0190    8.0120   12.4990 C.3   234  LEU234      0.0001
    115  N         49.4230    7.8830   13.5510 N.3   243  PHE243     -0.1227
    116  CA        48.3460    8.7360   13.0580 C.3   243  PHE243      0.1736
    117  C         47.0070    8.2230   13.5680 C.2   243  PHE243      0.2595
    118  O         46.1180    7.8690   12.7920 O.2   243  PHE243     -0.2718
    119  CB        48.3760    8.7680   11.5270 C.3   243  PHE243      0.0547
    120  CG        49.7130    9.1620   10.9590 C.ar  243  PHE243     -0.0202
    121  CD1       50.1660   10.4750   11.0530 C.ar  243  PHE243     -0.0042
    122  CD2       50.5310    8.2160   10.3530 C.ar  243  PHE243     -0.0042
    123  CE1       51.4170   10.8390   10.5480 C.ar  243  PHE243     -0.0003
    124  CE2       51.7810    8.5710    9.8470 C.ar  243  PHE243     -0.0003
    125  CZ        52.2250    9.8870    9.9450 C.ar  243  PHE243     -0.0000
    126  N         46.8710    8.1940   14.8880 N.am  244  VAL244     -0.1966
    127  CA        45.6560    7.7060   15.5310 C.3   244  VAL244      0.1727
    128  C         45.2870    8.6090   16.6960 C.2   244  VAL244      0.2617
    129  O         46.0620    9.4910   17.0710 O.2   244  VAL244     -0.2715
    130  CB        45.8580    6.2630   16.0740 C.3   244  VAL244      0.0290
    131  CG1       46.0710    5.2880   14.9230 C.3   244  VAL244      0.0023
    132  CG2       47.0680    6.2230   17.0090 C.3   244  VAL244      0.0023
    133  N         44.0970    8.3990   17.2510 N.am  245  THR245     -0.1937
    134  CA        43.6550    9.1730   18.3970 C.3   245  THR245      0.2028
    135  C         44.1110    8.3690   19.6240 C.2   245  THR245      0.2642
    136  O         44.5300    7.2220   19.4890 O.2   245  THR245     -0.2714
    137  CB        42.1220    9.3830   18.3790 C.3   245  THR245      0.1808
    138  OG1       41.7610   10.3110   19.4100 O.3   245  THR245     -0.2208
    139  CG2       41.3850    8.0620   18.5850 C.3   245  THR245      0.0379
    140  N         44.0300    8.9420   20.8180 N.am  246  SER246     -0.1949
    141  CA        44.5430    8.2350   21.9890 C.3   246  SER246      0.1924
    142  C         43.6140    7.3760   22.8290 C.2   246  SER246      0.2314
    143  O         43.8900    7.1390   24.0000 O.2   246  SER246     -0.2863
    144  CB        45.2640    9.2340   22.8910 C.3   246  SER246      0.2116
    145  OG        46.2870    9.8960   22.1620 O.3   246  SER246     -0.2180
    146  N         40.4900    9.3390    4.1740 N.3   278  ARG278     -0.1231
    147  CA        41.5640    9.3990    5.1590 C.3   278  ARG278      0.1694
    148  C         41.9170   10.8760    5.3570 C.2   278  ARG278      0.2592
    149  O         41.8720   11.6570    4.4090 O.2   278  ARG278     -0.2718
    150  CB        42.7740    8.6410    4.6060 C.3   278  ARG278      0.0321
    151  CG        43.5510    7.7940    5.5890 C.3   278  ARG278      0.0489
    152  CD        44.4070    8.6050    6.5350 C.3   278  ARG278      0.2205
    153  NE        45.5370    7.8140    7.0170 N.pl3 278  ARG278     -0.0865
    154  CZ        46.4800    8.2750    7.8300 C.cat 278  ARG278      0.5346
    155  NH1       46.4290    9.5280    8.2660 N.pl3 278  ARG278      0.1354
    156  NH2       47.4840    7.4900    8.1980 N.pl3 278  ARG278      0.1354
    157  N         42.2730   11.2560    6.5800 N.am  279  VAL279     -0.1966
    158  CA        42.6320   12.6450    6.8660 C.3   279  VAL279      0.1727
    159  C         44.0640   12.7600    7.3840 C.2   279  VAL279      0.2616
    160  O         44.4280   12.1330    8.3800 O.2   279  VAL279     -0.2715
    161  CB        41.6670   13.2710    7.9020 C.3   279  VAL279      0.0290
    162  CG1       42.2120   14.5990    8.3980 C.3   279  VAL279      0.0023
    163  CG2       40.3070   13.4810    7.2730 C.3   279  VAL279      0.0023
    164  N         44.8740   13.5610    6.6990 N.am  280  GLY280     -0.1955
    165  CA        46.2540   13.7410    7.1130 C.3   280  GLY280      0.1869
    166  C         47.2280   12.8890    6.3230 C.2   280  GLY280      0.2309
    167  O         46.8170   12.0780    5.4960 O.2   280  GLY280     -0.2863
    168  N         36.9710   18.9950    6.0080 N.3   304  GLY304     -0.1225
    169  CA        36.8580   19.4710    7.3710 C.3   304  GLY304      0.1811
    170  C         35.8050   20.5570    7.4530 C.2   304  GLY304      0.2280
    171  O         36.0370   21.6920    7.0370 O.2   304  GLY304     -0.2866
    172  N         39.4020   15.9940    2.3980 N.3   311  ARG311     -0.1245
    173  CA        39.7480   14.6690    2.8650 C.3   311  ARG311      0.1563
    174  C         40.2240   13.8400    1.6790 C.2   311  ARG311      0.2260
    175  O         39.7380   13.9990    0.5580 O.2   311  ARG311     -0.2867
    176  CB        38.5300   14.0230    3.5280 C.3   311  ARG311      0.0307
    177  CG        38.0020   14.8330    4.7060 C.3   311  ARG311      0.0489
    178  CD        37.2790   13.9580    5.7090 C.3   311  ARG311      0.2205
    179  NE        35.8340   14.0040    5.5370 N.pl3 311  ARG311     -0.0865
    180  CZ        35.0190   14.7800    6.2420 C.cat 311  ARG311      0.5346
    181  NH1       35.4980   15.5860    7.1840 N.pl3 311  ARG311      0.1354
    182  NH2       33.7170   14.7430    6.0000 N.pl3 311  ARG311      0.1354
@<TRIPOS>BOND
     1   175   174    2
     2   174   173    1
     3   172   173    1
     4   173   176    1
     5   176   177    1
     6   146   147    1
     7   149   148    2
     8   150   147    1
     9   150   151    1
    10   177   178    1
    11    13    14   ar
    12    13    11   ar
    13   147   148    1
    14   148   157   am
    15   167   166    2
    16   179   178    1
    17   179   180    2
    18    14    12   ar
    19   151   152    1
    20    11     8   ar
    21   182   180    1
    22   168   169    1
    23   180   181    1
    24   166   165    1
    25   152   153    1
    26   157   158    1
    27   164   165    1
    28   164   159   am
    29    22    21    2
    30    12    10   ar
    31   158   159    1
    32   158   161    1
    33   153   154    2
    34   171   170    2
    35     8    10   ar
    36     8     6   ar
    37   163   161    1
    38   169   170    1
    39   159   160    2
    40    10     9   ar
    41   154   156    1
    42   154   155    1
    43   161   162    1
    44    21    20    1
    45    23    24    1
    46    23    20    1
    47     5     6    1
    48     5     2    1
    49    18    17    2
    50     6     7   ar
    51    26    24   ar
    52     1     2    1
    53    24    25   ar
    54    20    19    1
    55     9     7   ar
    56     2     3    1
    57    17    19   am
    58    17    16    1
    59     3     4    2
    60     3    15   am
    61   124   125   ar
    62   124   122   ar
    63   125   123   ar
    64    15    16    1
    65   122   120   ar
    66   123   121   ar
    67   120   121   ar
    68   120   119    1
    69   119   116    1
    70    52    51    1
    71    52    53    1
    72   114   112    1
    73    46    45    2
    74   118   117    2
    75    54    53    2
    76   116   115    1
    77   116   117    1
    78    51    45   am
    79   112   113    1
    80   112   111    1
    81    45    44    1
    82    53    55   am
    83   117   126   am
    84    43    44    1
    85   107   108    1
    86    44    47    1
    87   111   108    1
    88   108   109    1
    89   102   101    2
    90    55    56    1
    91    58    57    2
    92   126   127    1
    93   131   130    1
    94    77    76    1
    95    50    48    1
    96   101   100    1
    97    47    49    1
    98    47    48    1
    99    68    66    1
   100    57    56    1
   101    57    62   am
   102    76    75    1
   103   127   130    1
   104   127   128    1
   105    56    59    1
   106   100    99    1
   107   100   103    1
   108   109   110    2
   109    63    62    1
   110    63    66    1
   111    63    64    1
   112   130   132    1
   113    66    67    1
   114    30    29    2
   115    75    74    1
   116   103   104    1
   117   128   129    2
   118   128   133   am
   119    64    65    2
   120    64    69   am
   121    74    73    1
   122    59    61    1
   123    59    60    1
   124   133   134    1
   125   106   104   am
   126    29    28    1
   127   104   105    2
   128    69    70    1
   129    34    32   am
   130    31    28    1
   131    31    32    1
   132    73    70    1
   133    28    27    1
   134    32    33    2
   135   137   134    1
   136   137   139    1
   137   137   138    1
   138   134   135    1
   139    85    86    1
   140    85    84    1
   141    70    71    1
   142   136   135    2
   143   135   140   am
   144    83    84    1
   145    83    82    1
   146    41    40   ar
   147    71    78   am
   148    71    72    2
   149    38    37    2
   150    78    79    1
   151    40    42   ar
   152    40    39    1
   153    37    36    1
   154    94    92    1
   155   140   141    1
   156    82    79    1
   157    79    80    1
   158    39    36    1
   159    36    35    1
   160   141   142    1
   161   141   144    1
   162    92    91    1
   163   145   144    1
   164    91    93    1
   165    91    88    1
   166    80    81    2
   167   142   143    2
   168    95    96    1
   169    95    89   am
   170    87    88    1
   171    96    97    1
   172    88    89    1
   173    89    90    2
   174    97    98    2
