@<TRIPOS>MOLECULE
tmp/1iwhA01.pdb
 79 72 0 0 0
SMALL
GASTEIGER

@<TRIPOS>ATOM
      1  N         46.7890  123.6680  114.9820 N.3    53  ALA53      -0.1245
      2  CA        48.2300  123.5830  115.1970 C.3    53  ALA53       0.1562
      3  C         48.8340  122.3870  114.4780 C.2    53  ALA53       0.2260
      4  O         49.9560  122.4380  113.9350 O.2    53  ALA53      -0.2867
      5  CB        48.4980  123.5150  116.6940 C.3    53  ALA53       0.0290
      6  N         49.0990  123.0820  110.7230 N.3    56  LYS56      -0.1231
      7  CA        50.1470  124.0750  110.4480 C.3    56  LYS56       0.1693
      8  C         51.5260  123.4250  110.5270 C.2    56  LYS56       0.2591
      9  O         52.4090  123.6510  109.7110 O.2    56  LYS56      -0.2718
     10  CB        50.0810  125.2510  111.4220 C.3    56  LYS56       0.0285
     11  CG        48.6970  125.7760  111.7000 C.3    56  LYS56       0.0035
     12  CD        48.6230  127.2940  111.5600 C.3    56  LYS56       0.0206
     13  CE        47.7580  127.6110  110.3410 C.3    56  LYS56       0.1093
     14  NZ        46.7260  128.6460  110.6340 N.3    56  LYS56      -0.1314
     15  N         51.7290  122.5950  111.5510 N.am   57  ALA57      -0.1980
     16  CA        53.0370  121.9580  111.7170 C.3    57  ALA57       0.1597
     17  C         53.3090  120.9710  110.5920 C.2    57  ALA57       0.2287
     18  O         54.4280  120.8990  110.0710 O.2    57  ALA57      -0.2864
     19  CB        53.1100  121.2490  113.0660 C.3    57  ALA57       0.0319
     20  N         54.4160  122.7440  107.5650 N.3    60  LYS60      -0.1231
     21  CA        55.8760  123.0470  107.6040 C.3    60  LYS60       0.1693
     22  C         56.7060  121.8500  107.1600 C.2    60  LYS60       0.2591
     23  O         57.6880  121.9730  106.4060 O.2    60  LYS60      -0.2718
     24  CB        56.2660  123.4990  109.0090 C.3    60  LYS60       0.0285
     25  CG        57.7620  123.6980  109.2120 C.3    60  LYS60       0.0035
     26  CD        58.0520  124.6500  110.3670 C.3    60  LYS60       0.0206
     27  CE        59.5100  125.0920  110.3610 C.3    60  LYS60       0.1093
     28  NZ        60.2690  124.5730  109.1840 N.3    60  LYS60      -0.1314
     29  N         56.3280  120.6360  107.5860 N.am   61  LYS61      -0.1980
     30  CA        57.0780  119.4580  107.1650 C.3    61  LYS61       0.1596
     31  C         57.0040  119.3230  105.6530 C.2    61  LYS61       0.2287
     32  O         57.9950  119.1430  104.9500 O.2    61  LYS61      -0.2864
     33  CB        56.5350  118.2030  107.8430 C.3    61  LYS61       0.0298
     34  CG        56.6040  118.2870  109.3720 C.3    61  LYS61       0.0038
     35  CD        56.2680  116.9210  109.9640 C.3    61  LYS61       0.0206
     36  CE        56.2960  116.8580  111.4830 C.3    61  LYS61       0.1093
     37  NZ        56.2830  115.4540  112.0000 N.3    61  LYS61      -0.1314
     38  N         58.8870  122.0830  103.8790 N.3    64  ASP64      -0.1225
     39  CA        60.3410  121.8680  103.9940 C.3    64  ASP64       0.1805
     40  C         60.8320  120.7300  103.1100 C.2    64  ASP64       0.2597
     41  O         61.9040  120.7430  102.4780 O.2    64  ASP64      -0.2718
     42  CB        60.7170  121.5700  105.4460 C.3    64  ASP64       0.1424
     43  CG        60.6350  122.7670  106.3560 C.2    64  ASP64       0.3668
     44  OD1       60.4830  123.9170  105.8480 O.co2  64  ASP64      -0.2456
     45  OD2       60.7120  122.5700  107.5980 O.co2  64  ASP64      -0.2456
     46  N         60.0400  119.6540  103.0270 N.am   65  ALA65      -0.1979
     47  CA        60.4450  118.5790  102.1270 C.3    65  ALA65       0.1597
     48  C         60.4530  119.0250  100.6730 C.2    65  ALA65       0.2287
     49  O         61.2980  118.6320   99.8580 O.2    65  ALA65      -0.2864
     50  CB        59.5020  117.3960  102.3200 C.3    65  ALA65       0.0319
     51  N         63.5390  121.0870  100.1950 N.3    68  LEU68      -0.1245
     52  CA        64.7190  120.2130  100.0710 C.3    68  LEU68       0.1561
     53  C         64.7830  119.6050   98.6800 C.2    68  LEU68       0.2260
     54  O         65.8420  119.5450   98.0460 O.2    68  LEU68      -0.2867
     55  CB        64.6540  119.1740  101.1980 C.3    68  LEU68       0.0270
     56  CG        65.7850  118.1530  101.2980 C.3    68  LEU68       0.0019
     57  CD1       67.0280  118.8230  101.8770 C.3    68  LEU68       0.0001
     58  CD2       65.4000  116.9530  102.1470 C.3    68  LEU68       0.0001
     59  N         67.7080  111.9370   97.8800 N.3    79  ALA79      -0.1231
     60  CA        67.3480  112.9240   98.8730 C.3    79  ALA79       0.1694
     61  C         66.0520  112.5700   99.5930 C.2    79  ALA79       0.2591
     62  O         65.8830  112.9650  100.7440 O.2    79  ALA79      -0.2718
     63  CB        67.2000  114.2840   98.1910 C.3    79  ALA79       0.0304
     64  N         65.1340  111.8860   98.9230 N.am   80  LEU80      -0.1980
     65  CA        63.8600  111.5590   99.5680 C.3    80  LEU80       0.1596
     66  C         63.7060  110.0720   99.8730 C.2    80  LEU80       0.2287
     67  O         62.5880  109.6090  100.1100 O.2    80  LEU80      -0.2864
     68  CB        62.7030  111.9800   98.6670 C.3    80  LEU80       0.0297
     69  CG        62.7170  113.4440   98.2330 C.3    80  LEU80       0.0022
     70  CD1       61.6310  113.7000   97.1890 C.3    80  LEU80       0.0001
     71  CD2       62.5390  114.3460   99.4460 C.3    80  LEU80       0.0001
     72  N         61.9550  109.3440  103.2960 N.3    83  LEU83      -0.1245
     73  CA        60.5500  109.7880  103.2830 C.3    83  LEU83       0.1561
     74  C         59.7280  108.8420  102.4260 C.2    83  LEU83       0.2260
     75  O         58.5340  108.5900  102.6480 O.2    83  LEU83      -0.2867
     76  CB        60.5500  111.2260  102.7650 C.3    83  LEU83       0.0270
     77  CG        59.2620  112.0210  102.9060 C.3    83  LEU83       0.0019
     78  CD1       58.8370  112.1470  104.3640 C.3    83  LEU83       0.0001
     79  CD2       59.4850  113.3780  102.2390 C.3    83  LEU83       0.0001
@<TRIPOS>BOND
     1    70    69    1
     2    59    60    1
     3    54    53    2
     4    63    60    1
     5    69    68    1
     6    69    71    1
     7    68    65    1
     8    53    52    1
     9    60    61    1
    10    64    65    1
    11    64    61   am
    12    65    66    1
    13    61    62    2
    14    49    48    2
    15    66    67    2
    16    52    51    1
    17    52    55    1
    18    48    47    1
    19    55    56    1
    20    56    57    1
    21    56    58    1
    22    47    50    1
    23    47    46    1
    24    79    77    1
    25    74    75    2
    26    74    73    1
    27    41    40    2
    28    76    77    1
    29    76    73    1
    30    77    78    1
    31    46    40   am
    32    40    39    1
    33    73    72    1
    34    38    39    1
    35    39    42    1
    36    32    31    2
    37    42    43    1
    38    31    30    1
    39    44    43   ar
    40    43    45   ar
    41    23    22    2
    42    22    29   am
    43    22    21    1
    44    30    29    1
    45    30    33    1
    46    20    21    1
    47    21    24    1
    48    33    34    1
    49    24    25    1
    50    28    27    1
    51    25    26    1
    52    34    35    1
    53     9     8    2
    54    35    36    1
    55    18    17    2
    56    13    14    1
    57    13    12    1
    58    27    26    1
    59     7     8    1
    60     7     6    1
    61     7    10    1
    62     8    15   am
    63    17    16    1
    64    10    11    1
    65    36    37    1
    66    15    16    1
    67    12    11    1
    68    16    19    1
    69     4     3    2
    70     3     2    1
    71     1     2    1
    72     2     5    1
