@<TRIPOS>MOLECULE
tmp/1iwnA00.pdb
 158 146 0 0 0
SMALL
GASTEIGER

@<TRIPOS>ATOM
      1  N        -11.5680   70.8250  -39.9420 N.3    28  PHE28      -0.1241
      2  CA       -12.4370   69.8250  -40.5510 C.3    28  PHE28       0.1605
      3  C        -13.8980   70.0140  -40.1280 C.2    28  PHE28       0.2264
      4  O        -14.1820   70.3450  -38.9840 O.2    28  PHE28      -0.2867
      5  CB       -11.9780   68.4270  -40.1300 C.3    28  PHE28       0.0534
      6  CG       -13.0530   67.3830  -40.2320 C.ar   28  PHE28      -0.0203
      7  CD1      -13.3550   66.7920  -41.4490 C.ar   28  PHE28      -0.0042
      8  CD2      -13.7920   67.0260  -39.1140 C.ar   28  PHE28      -0.0042
      9  CE1      -14.3830   65.8550  -41.5580 C.ar   28  PHE28      -0.0003
     10  CE2      -14.8250   66.0940  -39.1990 C.ar   28  PHE28      -0.0003
     11  CZ       -15.1220   65.5050  -40.4260 C.ar   28  PHE28      -0.0000
     12  N        -20.3600   68.1300  -37.0470 N.3    37  VAL37      -0.1245
     13  CA       -19.0990   67.9670  -36.3410 C.3    37  VAL37       0.1561
     14  C        -17.9700   68.8710  -36.8220 C.2    37  VAL37       0.2260
     15  O        -17.7840   69.0730  -38.0240 O.2    37  VAL37      -0.2867
     16  CB       -18.6280   66.4980  -36.4330 C.3    37  VAL37       0.0252
     17  CG1      -17.3100   66.3160  -35.6890 C.3    37  VAL37       0.0019
     18  CG2      -19.6930   65.5840  -35.8480 C.3    37  VAL37       0.0019
     19  N         -7.4070   69.0240  -37.5430 N.3    41  PHE41      -0.1241
     20  CA        -6.7480   67.7910  -37.9480 C.3    41  PHE41       0.1605
     21  C         -5.3030   67.9830  -38.3760 C.2    41  PHE41       0.2264
     22  O         -4.9050   69.0550  -38.8320 O.2    41  PHE41      -0.2867
     23  CB        -7.5370   67.1370  -39.0920 C.3    41  PHE41       0.0534
     24  CG        -7.3840   67.8390  -40.4180 C.ar   41  PHE41      -0.0203
     25  CD1       -6.4110   67.4390  -41.3280 C.ar   41  PHE41      -0.0042
     26  CD2       -8.1880   68.9240  -40.7380 C.ar   41  PHE41      -0.0042
     27  CE1       -6.2410   68.1160  -42.5430 C.ar   41  PHE41      -0.0003
     28  CE2       -8.0300   69.6090  -41.9440 C.ar   41  PHE41      -0.0003
     29  CZ        -7.0490   69.2000  -42.8500 C.ar   41  PHE41      -0.0000
     30  N         -2.5530   65.8260  -40.7100 N.3    43  TRP43      -0.1241
     31  CA        -2.4400   64.7460  -41.6820 C.3    43  TRP43       0.1605
     32  C         -1.0050   64.5720  -42.1380 C.2    43  TRP43       0.2264
     33  O         -0.3460   65.5340  -42.5090 O.2    43  TRP43      -0.2867
     34  CB        -3.3500   65.0490  -42.8680 C.3    43  TRP43       0.0550
     35  CG        -3.2290   64.1120  -44.0100 C.ar   43  TRP43       0.0003
     36  CD1       -2.7220   64.3910  -45.2510 C.ar   43  TRP43       0.0946
     37  CD2       -3.6430   62.7430  -44.0450 C.ar   43  TRP43       0.0152
     38  NE1       -2.8000   63.2780  -46.0560 N.ar   43  TRP43      -0.2442
     39  CE2       -3.3640   62.2530  -45.3420 C.ar   43  TRP43       0.0810
     40  CE3       -4.2300   61.8820  -43.1090 C.ar   43  TRP43       0.0012
     41  CZ2       -3.6430   60.9380  -45.7210 C.ar   43  TRP43       0.0191
     42  CZ3       -4.5080   60.5740  -43.4890 C.ar   43  TRP43       0.0001
     43  CH2       -4.2180   60.1180  -44.7840 C.ar   43  TRP43       0.0015
     44  N         -3.4270   60.2910  -39.1330 N.3    53  LEU53      -0.1245
     45  CA        -4.4480   61.3200  -38.9900 C.3    53  LEU53       0.1561
     46  C         -4.6910   61.5800  -37.5040 C.2    53  LEU53       0.2260
     47  O         -4.9680   60.6580  -36.7410 O.2    53  LEU53      -0.2867
     48  CB        -5.7580   60.8960  -39.6650 C.3    53  LEU53       0.0270
     49  CG        -6.9160   61.8870  -39.4820 C.3    53  LEU53       0.0019
     50  CD1       -6.5200   63.2340  -40.0500 C.3    53  LEU53       0.0001
     51  CD2       -8.1750   61.3700  -40.1760 C.3    53  LEU53       0.0001
     52  N         -6.8950   64.0230  -34.8260 N.3    55  LEU55      -0.1245
     53  CA        -8.0000   64.9630  -34.6620 C.3    55  LEU55       0.1561
     54  C         -8.1470   65.4660  -33.2350 C.2    55  LEU55       0.2260
     55  O         -8.0190   64.7010  -32.2920 O.2    55  LEU55      -0.2867
     56  CB        -9.3150   64.3030  -35.0820 C.3    55  LEU55       0.0270
     57  CG        -9.4240   63.7950  -36.5180 C.3    55  LEU55       0.0019
     58  CD1      -10.6220   62.8640  -36.6290 C.3    55  LEU55       0.0001
     59  CD2       -9.5660   64.9720  -37.4690 C.3    55  LEU55       0.0001
     60  N         -9.2780   63.8360  -30.0270 N.3    63  GLU63      -0.1231
     61  CA       -10.4420   62.9530  -30.0680 C.3    63  GLU63       0.1699
     62  C        -10.0820   61.5640  -30.5670 C.2    63  GLU63       0.2592
     63  O        -10.6120   60.5620  -30.0900 O.2    63  GLU63      -0.2718
     64  CB       -11.5170   63.5270  -30.9860 C.3    63  GLU63       0.0402
     65  CG       -12.1150   64.8140  -30.5330 C.3    63  GLU63       0.1161
     66  CD       -13.0340   65.4240  -31.5620 C.2    63  GLU63       0.3649
     67  OE1      -12.5230   65.7690  -32.6440 O.co2  63  GLU63      -0.2457
     68  OE2      -14.2500   65.5630  -31.2980 O.co2  63  GLU63      -0.2457
     69  N         -9.2040   61.5050  -31.5590 N.am   64  LEU64      -0.1980
     70  CA        -8.7770   60.2190  -32.0840 C.3    64  LEU64       0.1596
     71  C         -7.5750   60.3320  -32.9890 C.2    64  LEU64       0.2287
     72  O         -7.2200   61.4150  -33.4490 O.2    64  LEU64      -0.2864
     73  CB        -9.9280   59.5200  -32.8240 C.3    64  LEU64       0.0297
     74  CG       -10.3750   59.9560  -34.2210 C.3    64  LEU64       0.0022
     75  CD1       -9.3680   59.5070  -35.2690 C.3    64  LEU64       0.0001
     76  CD2      -11.7270   59.3250  -34.5150 C.3    64  LEU64       0.0001
     77  N        -12.9170   53.8450  -39.8700 N.3    92  ILE92      -0.1245
     78  CA       -13.2980   55.2260  -39.5800 C.3    92  ILE92       0.1561
     79  C        -14.8210   55.3170  -39.5790 C.2    92  ILE92       0.2260
     80  O        -15.4280   55.8690  -38.6580 O.2    92  ILE92      -0.2867
     81  CB       -12.7540   56.2110  -40.6500 C.3    92  ILE92       0.0252
     82  CG1      -11.2390   56.3900  -40.4900 C.3    92  ILE92       0.0019
     83  CG2      -13.4430   57.5710  -40.5100 C.3    92  ILE92       0.0019
     84  CD1      -10.8360   57.1240  -39.2230 C.3    92  ILE92       0.0001
     85  N        -16.6160   56.0100  -35.9190 N.3    96  THR96      -0.1218
     86  CA       -17.0170   57.4030  -35.7220 C.3    96  THR96       0.1862
     87  C        -18.4390   57.6680  -36.1830 C.2    96  THR96       0.2287
     88  O        -19.0190   58.6960  -35.8430 O.2    96  THR96      -0.2866
     89  CB       -16.0930   58.3930  -36.4660 C.3    96  THR96       0.1770
     90  OG1      -16.3640   58.3470  -37.8700 O.3    96  THR96      -0.2211
     91  CG2      -14.6350   58.0440  -36.2230 C.3    96  THR96       0.0375
     92  N        -19.3460   58.1550  -39.2610 N.3    98  MET98      -0.1245
     93  CA       -19.3510   59.0240  -40.4300 C.3    98  MET98       0.1570
     94  C        -18.7230   58.2930  -41.6110 C.2    98  MET98       0.2261
     95  O        -17.6410   57.7220  -41.4940 O.2    98  MET98      -0.2867
     96  CB       -18.5890   60.3220  -40.1400 C.3    98  MET98       0.0387
     97  CG       -19.4380   61.4150  -39.4930 C.3    98  MET98       0.0595
     98  SD       -18.4700   62.7950  -38.8230 S.3    98  MET98      -0.1393
     99  CE       -18.1970   62.1310  -37.2710 C.3    98  MET98       0.0692
    100  N        -16.7720   58.7210  -44.1370 N.3   100  ILE100     -0.1245
    101  CA       -15.7360   59.5380  -44.7600 C.3   100  ILE100      0.1561
    102  C        -15.0500   58.7700  -45.8930 C.2   100  ILE100      0.2260
    103  O        -14.5530   57.6630  -45.6890 O.2   100  ILE100     -0.2867
    104  CB       -14.6620   59.9470  -43.7310 C.3   100  ILE100      0.0252
    105  CG1      -15.3220   60.6700  -42.5460 C.3   100  ILE100      0.0019
    106  CG2      -13.6190   60.8330  -44.3870 C.3   100  ILE100      0.0019
    107  CD1      -16.0680   61.9360  -42.9220 C.3   100  ILE100      0.0001
    108  N        -12.3160   58.1830  -47.1150 N.3   102  LEU102     -0.1245
    109  CA       -10.8900   58.2550  -46.8310 C.3   102  LEU102      0.1561
    110  C         -9.9740   57.8890  -48.0000 C.2   102  LEU102      0.2260
    111  O         -9.0070   58.6050  -48.2670 O.2   102  LEU102     -0.2867
    112  CB       -10.5670   57.3700  -45.6290 C.3   102  LEU102      0.0270
    113  CG        -9.1840   57.5210  -45.0040 C.3   102  LEU102      0.0019
    114  CD1       -9.0090   58.9340  -44.4800 C.3   102  LEU102      0.0001
    115  CD2       -9.0350   56.5060  -43.8780 C.3   102  LEU102      0.0001
    116  N        -10.1540   60.6170  -50.6200 N.3   105  LEU105     -0.1231
    117  CA        -9.6150   61.8310  -50.0120 C.3   105  LEU105      0.1693
    118  C         -8.0860   61.8430  -49.9710 C.2   105  LEU105      0.2591
    119  O         -7.4610   62.8970  -50.1020 O.2   105  LEU105     -0.2718
    120  CB       -10.1880   61.9830  -48.6020 C.3   105  LEU105      0.0284
    121  CG       -10.7920   63.3120  -48.1180 C.3   105  LEU105      0.0019
    122  CD1      -11.2780   64.1690  -49.2820 C.3   105  LEU105      0.0001
    123  CD2      -11.9480   62.9840  -47.1720 C.3   105  LEU105      0.0001
    124  N         -7.4750   60.6780  -49.8040 N.am  106  ARG106     -0.1980
    125  CA        -6.0210   60.6010  -49.7710 C.3   106  ARG106      0.1597
    126  C         -5.4130   61.0780  -51.0830 C.2   106  ARG106      0.2287
    127  O         -4.2500   61.4740  -51.1290 O.2   106  ARG106     -0.2864
    128  CB        -5.5550   59.1720  -49.4730 C.3   106  ARG106      0.0334
    129  CG        -5.8410   58.7430  -48.0340 C.3   106  ARG106      0.0492
    130  CD        -4.8400   57.7230  -47.5420 C.3   106  ARG106      0.2205
    131  NE        -4.8850   56.4810  -48.3040 N.pl3 106  ARG106     -0.0865
    132  CZ        -3.8450   55.9640  -48.9540 C.cat 106  ARG106      0.5346
    133  NH1       -2.6710   56.5880  -48.9360 N.pl3 106  ARG106      0.1354
    134  NH2       -3.9770   54.8210  -49.6180 N.pl3 106  ARG106      0.1354
    135  N         -7.0640   65.2790  -51.4190 N.3   109  ILE109     -0.1245
    136  CA        -6.4700   66.2750  -50.5370 C.3   109  ILE109      0.1561
    137  C         -5.1400   66.7370  -51.1220 C.2   109  ILE109      0.2260
    138  O         -4.6770   67.8320  -50.8420 O.2   109  ILE109     -0.2867
    139  CB        -6.2280   65.7200  -49.1150 C.3   109  ILE109      0.0252
    140  CG1       -6.0640   66.8910  -48.1350 C.3   109  ILE109      0.0019
    141  CG2       -4.9550   64.8530  -49.0840 C.3   109  ILE109      0.0019
    142  CD1       -6.0510   66.4910  -46.6710 C.3   109  ILE109      0.0001
    143  N        -18.6470   67.7080  -46.5930 N.3   167  ILE167     -0.1245
    144  CA       -17.3750   67.7560  -45.8680 C.3   167  ILE167      0.1561
    145  C        -16.6040   69.0230  -46.2580 C.2   167  ILE167      0.2260
    146  O        -16.5160   69.3730  -47.4310 O.2   167  ILE167     -0.2867
    147  CB       -16.4970   66.5240  -46.1720 C.3   167  ILE167      0.0252
    148  CG1      -17.1810   65.2560  -45.6420 C.3   167  ILE167      0.0019
    149  CG2      -15.1290   66.6830  -45.5060 C.3   167  ILE167      0.0019
    150  CD1      -16.3680   63.9770  -45.8320 C.3   167  ILE167      0.0001
    151  N        -12.8900   71.1180  -45.7960 N.3   169  LEU169     -0.1245
    152  CA       -11.5120   71.0680  -45.3630 C.3   169  LEU169      0.1561
    153  C        -10.8290   72.4060  -45.5730 C.2   169  LEU169      0.2260
    154  O        -10.9860   73.0450  -46.6150 O.2   169  LEU169     -0.2867
    155  CB       -10.7600   69.9720  -46.1150 C.3   169  LEU169      0.0270
    156  CG       -11.1770   68.5270  -45.8270 C.3   169  LEU169      0.0019
    157  CD1      -10.3970   67.5890  -46.7220 C.3   169  LEU169      0.0001
    158  CD2      -10.9110   68.1890  -44.3550 C.3   169  LEU169      0.0001
@<TRIPOS>BOND
     1   135   136    1
     2   127   126    2
     3   137   138    2
     4   137   136    1
     5   126   125    1
     6   116   117    1
     7   136   139    1
     8   119   118    2
     9   117   118    1
    10   117   120    1
    11   118   124   am
    12   124   125    1
    13   125   128    1
    14   134   132    1
    15   128   129    1
    16   122   121    1
    17   139   141    1
    18   139   140    1
    19   132   133    1
    20   132   131    2
    21   120   121    1
    22   131   130    1
    23   111   110    2
    24   140   142    1
    25   121   123    1
    26   129   130    1
    27   110   109    1
    28   146   145    2
    29   108   109    1
    30   109   112    1
    31   157   156    1
    32   154   153    2
    33   143   144    1
    34   145   144    1
    35   147   144    1
    36   147   148    1
    37   147   149    1
    38   155   156    1
    39   155   152    1
    40    38    39   ar
    41    38    36   ar
    42   102   103    2
    43   102   101    1
    44   150   148    1
    45   156   158    1
    46   151   152    1
    47    41    39   ar
    48    41    43   ar
    49   112   113    1
    50   153   152    1
    51    39    37   ar
    52    36    35   ar
    53   113   114    1
    54   113   115    1
    55    43    42   ar
    56   101   100    1
    57   101   104    1
    58   106   104    1
    59    37    35   ar
    60    37    40   ar
    61    35    34    1
    62   104   105    1
    63    42    40   ar
    64   107   105    1
    65    34    31    1
    66    29    27   ar
    67    29    28   ar
    68    27    25   ar
    69    33    32    2
    70    32    31    1
    71    28    26   ar
    72    31    30    1
    73    94    95    2
    74    94    93    1
    75     9     7   ar
    76     9    11   ar
    77     7     6   ar
    78    25    24   ar
    79    26    24   ar
    80    81    83    1
    81    81    82    1
    82    81    78    1
    83     2     5    1
    84     2     3    1
    85     2     1    1
    86    82    84    1
    87    93    96    1
    88    93    92    1
    89    11    10   ar
    90    24    23    1
    91     6     5    1
    92     6     8   ar
    93    51    49    1
    94    96    97    1
    95     3     4    2
    96    50    49    1
    97    77    78    1
    98    48    49    1
    99    48    45    1
   100    78    79    1
   101    79    80    2
   102    97    98    1
   103    10     8   ar
   104    44    45    1
   105    23    20    1
   106    45    46    1
   107    22    21    2
   108    98    99    1
   109    21    20    1
   110    15    14    2
   111    20    19    1
   112    90    89    1
   113    46    47    2
   114    59    57    1
   115    12    13    1
   116    14    13    1
   117    58    57    1
   118    57    56    1
   119    89    91    1
   120    89    86    1
   121    16    13    1
   122    16    18    1
   123    16    17    1
   124    87    88    2
   125    87    86    1
   126    85    86    1
   127    75    74    1
   128    56    53    1
   129    52    53    1
   130    53    54    1
   131    76    74    1
   132    74    73    1
   133    72    71    2
   134    54    55    2
   135    71    70    1
   136    73    70    1
   137    67    66   ar
   138    70    69    1
   139    66    68   ar
   140    66    65    1
   141    69    62   am
   142    64    65    1
   143    64    61    1
   144    62    63    2
   145    62    61    1
   146    61    60    1
