@<TRIPOS>MOLECULE
tmp/1iwpD00.pdb
 172 161 0 0 0
SMALL
GASTEIGER

@<TRIPOS>ATOM
      1  N         95.8020  -93.5350  322.0880 N.3   173  THR173     -0.1203
      2  CA        95.5810  -92.4000  322.9690 C.3   173  THR173      0.1994
      3  C         94.0730  -92.2830  323.0840 C.2   173  THR173      0.2618
      4  O         93.3480  -92.9930  322.3910 O.2   173  THR173     -0.2717
      5  CB        96.1850  -91.0920  322.4150 C.3   173  THR173      0.1784
      6  OG1       96.1110  -90.0780  323.4240 O.3   173  THR173     -0.2211
      7  CG2       95.4360  -90.6250  321.1840 C.3   173  THR173      0.0376
      8  N         93.5950  -91.3870  323.9320 N.am  174  VAL174     -0.1965
      9  CA        92.1600  -91.2760  324.1380 C.3   174  VAL174      0.1727
     10  C         91.5290  -89.9190  323.8810 C.2   174  VAL174      0.2616
     11  O         92.1680  -88.8790  324.0360 O.2   174  VAL174     -0.2715
     12  CB        91.8030  -91.6740  325.5850 C.3   174  VAL174      0.0290
     13  CG1       92.1080  -93.1330  325.8210 C.3   174  VAL174      0.0023
     14  CG2       92.6000  -90.8150  326.5560 C.3   174  VAL174      0.0023
     15  N         90.2590  -89.9470  323.4830 N.am  175  GLY175     -0.1955
     16  CA        89.5260  -88.7130  323.2790 C.3   175  GLY175      0.1869
     17  C         89.0680  -88.3600  324.6800 C.2   175  GLY175      0.2309
     18  O         88.9760  -87.1950  325.0540 O.2   175  GLY175     -0.2863
     19  N         90.1610  -89.0810  328.5070 N.3   177  ALA177     -0.1245
     20  CA        91.2330  -89.5740  329.3720 C.3   177  ALA177      0.1562
     21  C         90.9240  -90.9140  330.0450 C.2   177  ALA177      0.2260
     22  O         91.6170  -91.9130  329.8200 O.2   177  ALA177     -0.2867
     23  CB        91.5620  -88.5310  330.4270 C.3   177  ALA177      0.0290
     24  N         99.6840  -93.0350  324.8350 N.3   203  SER203     -0.1202
     25  CA       100.1200  -91.6580  325.0430 C.3   203  SER203      0.2020
     26  C         99.1900  -90.7040  325.7680 C.2   203  SER203      0.2619
     27  O         98.3160  -90.0950  325.1560 O.2   203  SER203     -0.2717
     28  CB       100.4790  -91.0640  323.6920 C.3   203  SER203      0.2103
     29  OG       101.3100  -91.9650  322.9940 O.3   203  SER203     -0.2182
     30  N         99.4190  -90.5370  327.0670 N.am  204  VAL204     -0.1965
     31  CA        98.6060  -89.6510  327.8870 C.3   204  VAL204      0.1727
     32  C         99.5010  -88.8150  328.7870 C.2   204  VAL204      0.2616
     33  O        100.7160  -88.7680  328.5890 O.2   204  VAL204     -0.2715
     34  CB        97.6340  -90.4640  328.7510 C.3   204  VAL204      0.0290
     35  CG1       96.7210  -91.2900  327.8510 C.3   204  VAL204      0.0023
     36  CG2       98.4090  -91.3830  329.6820 C.3   204  VAL204      0.0023
     37  N         98.8990  -88.1480  329.7690 N.am  205  GLU205     -0.1963
     38  CA        99.6420  -87.3190  330.7080 C.3   205  GLU205      0.1733
     39  C        100.7620  -88.1790  331.3090 C.2   205  GLU205      0.2616
     40  O        100.5540  -89.3550  331.6020 O.2   205  GLU205     -0.2715
     41  CB        98.6880  -86.7980  331.7800 C.3   205  GLU205      0.0429
     42  CG        99.3000  -85.8570  332.7990 C.3   205  GLU205      0.1163
     43  CD       100.0820  -86.5920  333.8610 C.2   205  GLU205      0.3649
     44  OE1       99.6660  -87.7100  334.2230 O.co2 205  GLU205     -0.2457
     45  OE2      101.0940  -86.0470  334.3410 O.co2 205  GLU205     -0.2457
     46  N        101.9420  -87.5830  331.4830 N.am  206  GLU206     -0.1977
     47  CA       103.1240  -88.2870  331.9840 C.3   206  GLU206      0.1602
     48  C        102.9320  -89.2270  333.1700 C.2   206  GLU206      0.2287
     49  O        103.1270  -90.4310  333.0330 O.2   206  GLU206     -0.2864
     50  CB       104.2410  -87.2920  332.3100 C.3   206  GLU206      0.0415
     51  CG       104.6670  -86.3950  331.1610 C.3   206  GLU206      0.1163
     52  CD       105.1510  -87.1410  329.9340 C.2   206  GLU206      0.3649
     53  OE1      105.2380  -88.3850  329.9570 O.co2 206  GLU206     -0.2457
     54  OE2      105.4520  -86.4690  328.9270 O.co2 206  GLU206     -0.2457
     55  N        105.7500  -90.5740  324.1000 N.3   223  THR223     -0.1218
     56  CA       105.4350  -89.1610  324.2290 C.3   223  THR223      0.1862
     57  C        105.8670  -88.5470  325.5520 C.2   223  THR223      0.2287
     58  O        105.1290  -87.7730  326.1600 O.2   223  THR223     -0.2866
     59  CB       103.9250  -88.8930  323.9890 C.3   223  THR223      0.1770
     60  OG1      103.1280  -89.7030  324.8640 O.3   223  THR223     -0.2211
     61  CG2      103.5730  -89.2180  322.5630 C.3   223  THR223      0.0375
     62  N        107.6420  -86.0440  326.7140 N.3   225  SER225     -0.1217
     63  CA       108.1050  -84.8130  326.1040 C.3   225  SER225      0.1889
     64  C        109.1240  -83.9290  326.7910 C.2   225  SER225      0.2288
     65  O        109.2050  -83.8570  328.0150 O.2   225  SER225     -0.2866
     66  CB       106.8890  -83.9630  325.7640 C.3   225  SER225      0.2089
     67  OG       106.1450  -83.7040  326.9370 O.3   225  SER225     -0.2183
     68  N        110.9990  -79.9060  325.8890 N.3   227  TYR227     -0.1241
     69  CA       110.7970  -78.7110  325.0860 C.3   227  TYR227      0.1605
     70  C        112.0500  -77.8400  325.0270 C.2   227  TYR227      0.2264
     71  O        112.9500  -77.9740  325.8630 O.2   227  TYR227     -0.2867
     72  CB       109.6070  -77.9220  325.6400 C.3   227  TYR227      0.0534
     73  CG       108.3450  -78.7530  325.7870 C.ar  227  TYR227     -0.0201
     74  CD1      108.1270  -79.5380  326.9200 C.ar  227  TYR227     -0.0009
     75  CD2      107.3720  -78.7480  324.7940 C.ar  227  TYR227     -0.0009
     76  CE1      106.9600  -80.2980  327.0590 C.ar  227  TYR227      0.0417
     77  CE2      106.2110  -79.4960  324.9180 C.ar  227  TYR227      0.0417
     78  CZ       106.0050  -80.2700  326.0500 C.ar  227  TYR227      0.1957
     79  OH       104.8500  -81.0210  326.1540 O.3   227  TYR227     -0.2866
     80  N        104.9630  -75.1280  330.7940 N.3   235  ASP235     -0.1225
     81  CA       103.5800  -75.3760  330.3950 C.3   235  ASP235      0.1805
     82  C        103.4360  -76.8520  330.0350 C.2   235  ASP235      0.2598
     83  O        102.3320  -77.4030  330.0230 O.2   235  ASP235     -0.2718
     84  CB       103.1940  -74.4740  329.2190 C.3   235  ASP235      0.1424
     85  CG       102.7870  -73.0740  329.6730 C.2   235  ASP235      0.3668
     86  OD1      103.3360  -72.5930  330.6920 O.co2 235  ASP235     -0.2456
     87  OD2      101.9280  -72.4540  329.0100 O.co2 235  ASP235     -0.2456
     88  N        104.5720  -77.4880  329.7510 N.am  236  GLY236     -0.1957
     89  CA       104.5670  -78.9030  329.4470 C.3   236  GLY236      0.1869
     90  C        104.4990  -79.6530  330.7690 C.2   236  GLY236      0.2309
     91  O        104.3400  -80.8740  330.8020 O.2   236  GLY236     -0.2863
     92  N        109.9590  -87.3860  323.1870 N.3   260  THR260     -0.1218
     93  CA       109.3060  -86.8800  322.0000 C.3   260  THR260      0.1862
     94  C        109.5200  -85.3830  322.0550 C.2   260  THR260      0.2287
     95  O        109.4470  -84.7750  323.1220 O.2   260  THR260     -0.2866
     96  CB       107.7910  -87.1300  321.9860 C.3   260  THR260      0.1770
     97  OG1      107.5320  -88.5180  321.7580 O.3   260  THR260     -0.2211
     98  CG2      107.1340  -86.3090  320.8730 C.3   260  THR260      0.0375
     99  N        106.8270  -76.8690  318.5120 N.3   265  SER265     -0.1217
    100  CA       106.0990  -76.9030  319.7750 C.3   265  SER265      0.1889
    101  C        106.2210  -75.6080  320.5710 C.2   265  SER265      0.2288
    102  O        105.2270  -75.0990  321.1020 O.2   265  SER265     -0.2866
    103  CB       106.5770  -78.0780  320.6280 C.3   265  SER265      0.2089
    104  OG       107.9610  -77.9660  320.8780 O.3   265  SER265     -0.2183
    105  N        104.2550  -72.7630  318.8750 N.3   268  LEU268     -0.1231
    106  CA       102.8260  -73.0090  318.9960 C.3   268  LEU268      0.1693
    107  C        102.3640  -72.8170  320.4350 C.2   268  LEU268      0.2591
    108  O        101.2000  -72.4970  320.6840 O.2   268  LEU268     -0.2718
    109  CB       102.4840  -74.4280  318.5530 C.3   268  LEU268      0.0284
    110  CG       101.0450  -74.8520  318.8410 C.3   268  LEU268      0.0019
    111  CD1      100.0860  -73.8790  318.1550 C.3   268  LEU268      0.0001
    112  CD2      100.8210  -76.2730  318.3570 C.3   268  LEU268      0.0001
    113  N        103.2730  -73.0210  321.3800 N.am  269  MET269     -0.1979
    114  CA       102.9320  -72.8700  322.7850 C.3   269  MET269      0.1605
    115  C        103.2420  -71.4790  323.3140 C.2   269  MET269      0.2287
    116  O        103.1770  -71.2280  324.5150 O.2   269  MET269     -0.2864
    117  CB       103.6130  -73.9610  323.6110 C.3   269  MET269      0.0413
    118  CG       103.0060  -75.3280  323.3090 C.3   269  MET269      0.0598
    119  SD       103.6580  -76.7480  324.2050 S.3   269  MET269     -0.1393
    120  CE       102.9860  -76.4430  325.8520 C.3   269  MET269      0.0692
    121  N        106.5400  -83.8040  314.3830 N.3   301  VAL301     -0.1231
    122  CA       105.5630  -84.6290  315.0770 C.3   301  VAL301      0.1692
    123  C        104.2040  -83.9050  315.0790 C.2   301  VAL301      0.2593
    124  O        103.7410  -83.4610  314.0340 O.2   301  VAL301     -0.2718
    125  CB       106.0470  -84.9350  316.5280 C.3   301  VAL301      0.0266
    126  CG1      105.2340  -86.0620  317.1420 C.3   301  VAL301      0.0020
    127  CG2      107.5170  -85.3350  316.5020 C.3   301  VAL301      0.0020
    128  N        103.5710  -83.7590  316.2350 N.am  302  SER302     -0.1938
    129  CA       102.2620  -83.1100  316.2850 C.3   302  SER302      0.2055
    130  C        102.2010  -81.6620  315.8080 C.2   302  SER302      0.2643
    131  O        101.1450  -81.1830  315.3890 O.2   302  SER302     -0.2714
    132  CB       101.6860  -83.2010  317.6960 C.3   302  SER302      0.2130
    133  OG       101.2020  -84.5060  317.9390 O.3   302  SER302     -0.2179
    134  N        103.3260  -80.9640  315.8550 N.am  303  CYS303     -0.1967
    135  CA       103.3540  -79.5800  315.4390 C.3   303  CYS303      0.1712
    136  C        103.8400  -79.4130  314.0030 C.2   303  CYS303      0.2296
    137  O        104.4220  -78.3900  313.6530 O.2   303  CYS303     -0.2864
    138  CB       104.2230  -78.7810  316.4070 C.3   303  CYS303      0.0983
    139  SG       103.6640  -78.9660  318.1240 S.3   303  CYS303     -0.0798
    140  N        101.6000  -87.0800  311.5130 N.3   337  GLN337     -0.1245
    141  CA       100.5930  -86.0450  311.6610 C.3   337  GLN337      0.1566
    142  C        100.2720  -85.2780  310.3890 C.2   337  GLN337      0.2260
    143  O        101.1520  -84.9390  309.6030 O.2   337  GLN337     -0.2867
    144  CB       101.0450  -85.0760  312.7490 C.3   337  GLN337      0.0367
    145  CG       101.2640  -85.7430  314.0930 C.3   337  GLN337      0.0905
    146  CD        99.9640  -85.9740  314.8340 C.2   337  GLN337      0.2608
    147  OE1       99.6890  -85.3130  315.8250 O.2   337  GLN337     -0.2717
    148  NE2       99.1580  -86.9050  314.3500 N.am  337  GLN337     -0.0878
    149  N         92.9500  -90.3080  316.6180 N.3   374  MET374     -0.1230
    150  CA        92.8290  -89.4010  317.7420 C.3   374  MET374      0.1702
    151  C         94.0310  -88.5160  318.0230 C.2   374  MET374      0.2592
    152  O         94.1080  -87.8720  319.0710 O.2   374  MET374     -0.2718
    153  CB        92.4100  -90.1750  318.9930 C.3   374  MET374      0.0401
    154  CG        91.0090  -90.7600  318.8660 C.3   374  MET374      0.0596
    155  SD        89.8600  -89.5660  318.1170 S.3   374  MET374     -0.1393
    156  CE        89.4790  -88.5200  319.5130 C.3   374  MET374      0.0692
    157  N         94.9700  -88.4840  317.0830 N.am  375  PHE375     -0.1962
    158  CA        96.1280  -87.5970  317.1830 C.3   375  PHE375      0.1771
    159  C         95.8440  -86.5280  316.1260 C.2   375  PHE375      0.2619
    160  O         96.7450  -85.8750  315.6130 O.2   375  PHE375     -0.2715
    161  CB        97.4280  -88.3400  316.8640 C.3   375  PHE375      0.0574
    162  CG        97.8550  -89.3010  317.9430 C.ar  375  PHE375     -0.0200
    163  CD1       98.3450  -88.8370  319.1560 C.ar  375  PHE375     -0.0042
    164  CD2       97.7480  -90.6690  317.7540 C.ar  375  PHE375     -0.0042
    165  CE1       98.7210  -89.7300  320.1680 C.ar  375  PHE375     -0.0003
    166  CE2       98.1200  -91.5630  318.7630 C.ar  375  PHE375     -0.0003
    167  CZ        98.6050  -91.0880  319.9680 C.ar  375  PHE375     -0.0000
    168  N         94.5640  -86.3740  315.7950 N.am  376  ALA376     -0.1977
    169  CA        94.1300  -85.3860  314.8130 C.3   376  ALA376      0.1597
    170  C         94.5460  -85.7520  313.3870 C.2   376  ALA376      0.2287
    171  O         94.7350  -84.8820  312.5420 O.2   376  ALA376     -0.2864
    172  CB        94.6710  -84.0070  315.1920 C.3   376  ALA376      0.0319
@<TRIPOS>BOND
     1   143   142    2
     2   142   141    1
     3   140   141    1
     4   141   144    1
     5   171   170    2
     6   144   145    1
     7   170   169    1
     8   137   136    2
     9   136   135    1
    10   124   123    2
    11   145   146    1
    12   148   146   am
    13   121   122    1
    14   169   172    1
    15   169   168    1
    16   146   147    2
    17   122   123    1
    18   122   125    1
    19   123   128   am
    20   131   130    2
    21   135   134    1
    22   135   138    1
    23   160   159    2
    24   168   159   am
    25   130   134   am
    26   130   129    1
    27   159   158    1
    28   128   129    1
    29   129   132    1
    30   138   139    1
    31   127   125    1
    32   125   126    1
    33   149   150    1
    34   161   158    1
    35   161   162    1
    36   157   158    1
    37   157   151   am
    38   132   133    1
    39   150   151    1
    40   150   153    1
    41   164   162   ar
    42   164   166   ar
    43   162   163   ar
    44   151   152    2
    45   155   154    1
    46   155   156    1
    47   111   110    1
    48   112   110    1
    49    99   100    1
    50   109   110    1
    51   109   106    1
    52   166   167   ar
    53   154   153    1
    54   105   106    1
    55   106   107    1
    56   163   165   ar
    57   100   101    1
    58   100   103    1
    59   167   165   ar
    60   107   108    2
    61   107   113   am
    62   101   102    2
    63   103   104    1
    64    98    96    1
    65     7     5    1
    66   113   114    1
    67    97    96    1
    68    96    93    1
    69    93    94    1
    70    93    92    1
    71    94    95    2
    72     1     2    1
    73     4     3    2
    74     5     2    1
    75     5     6    1
    76    61    59    1
    77   114   115    1
    78   114   117    1
    79     2     3    1
    80    29    28    1
    81     3     8   am
    82    16    15    1
    83    16    17    1
    84   118   117    1
    85   118   119    1
    86   115   116    2
    87    15    10   am
    88    28    25    1
    89    10    11    2
    90    10     9    1
    91     8     9    1
    92    59    56    1
    93    59    60    1
    94    55    56    1
    95     9    12    1
    96   119   120    1
    97    56    57    1
    98    17    18    2
    99    75    77   ar
   100    75    73   ar
   101    24    25    1
   102    77    78   ar
   103    70    69    1
   104    70    71    2
   105    25    26    1
   106    69    72    1
   107    69    68    1
   108    27    26    2
   109    57    58    2
   110    12    13    1
   111    12    14    1
   112    72    73    1
   113    66    63    1
   114    66    67    1
   115    26    30   am
   116    73    74   ar
   117    78    79    1
   118    78    76   ar
   119    63    62    1
   120    63    64    1
   121    64    65    2
   122    74    76   ar
   123    30    31    1
   124    35    34    1
   125    31    34    1
   126    31    32    1
   127    19    20    1
   128    33    32    2
   129    34    36    1
   130    32    37   am
   131    54    52   ar
   132    87    85   ar
   133    84    85    1
   134    84    81    1
   135    20    21    1
   136    20    23    1
   137    89    88    1
   138    89    90    1
   139    85    86   ar
   140    88    82   am
   141    37    38    1
   142    22    21    2
   143    52    53   ar
   144    52    51    1
   145    83    82    2
   146    82    81    1
   147    81    80    1
   148    38    39    1
   149    38    41    1
   150    90    91    2
   151    51    50    1
   152    39    46   am
   153    39    40    2
   154    46    47    1
   155    41    42    1
   156    47    50    1
   157    47    48    1
   158    42    43    1
   159    49    48    2
   160    43    44   ar
   161    43    45   ar
