@<TRIPOS>MOLECULE
tmp/1iwpB00.pdb
 196 186 0 0 0
SMALL
GASTEIGER

@<TRIPOS>ATOM
      1  N         91.6830 -104.0830  273.6920 N.3    36  LEU36      -0.1245
      2  CA        92.0560 -103.9320  275.0880 C.3    36  LEU36       0.1561
      3  C         90.8160 -103.8010  275.9590 C.2    36  LEU36       0.2260
      4  O         90.8260 -104.1840  277.1280 O.2    36  LEU36      -0.2867
      5  CB        92.9310 -102.6890  275.2560 C.3    36  LEU36       0.0270
      6  CG        94.2380 -102.6750  274.4580 C.3    36  LEU36       0.0019
      7  CD1       94.8380 -101.2810  274.4760 C.3    36  LEU36       0.0001
      8  CD2       95.2020 -103.6890  275.0430 C.3    36  LEU36       0.0001
      9  N        103.5120 -103.6970  263.6760 N.3    69  ASP69      -0.1225
     10  CA       103.4870 -102.2620  263.9230 C.3    69  ASP69       0.1805
     11  C        102.3630 -101.6720  263.0820 C.2    69  ASP69       0.2598
     12  O        102.3080 -101.8790  261.8680 O.2    69  ASP69      -0.2718
     13  CB       104.8230 -101.6320  263.5410 C.3    69  ASP69       0.1424
     14  CG       104.8300 -100.1320  263.7390 C.2    69  ASP69       0.3668
     15  OD1      104.1430  -99.4280  262.9690 O.co2  69  ASP69      -0.2456
     16  OD2      105.5130  -99.6630  264.6750 O.co2  69  ASP69      -0.2456
     17  N        101.4730 -100.9310  263.7300 N.am   70  VAL70      -0.1966
     18  CA       100.3250 -100.3480  263.0530 C.3    70  VAL70       0.1727
     19  C        100.6760  -99.3390  261.9670 C.2    70  VAL70       0.2617
     20  O         99.9660  -99.2410  260.9660 O.2    70  VAL70      -0.2715
     21  CB        99.3520  -99.6940  264.0730 C.3    70  VAL70       0.0290
     22  CG1       99.9260  -98.3790  264.5920 C.3    70  VAL70       0.0023
     23  CG2       97.9940  -99.4720  263.4320 C.3    70  VAL70       0.0023
     24  N        101.7520  -98.5780  262.1460 N.am   71  SER71      -0.1936
     25  CA       102.1230  -97.6110  261.1130 C.3    71  SER71       0.2055
     26  C        102.4000  -98.3380  259.8120 C.2    71  SER71       0.2643
     27  O        101.8120  -98.0230  258.7770 O.2    71  SER71      -0.2714
     28  CB       103.3750  -96.8190  261.4970 C.3    71  SER71       0.2130
     29  OG       103.0850  -95.8370  262.4640 O.3    71  SER71      -0.2179
     30  N        103.3030  -99.3110  259.8710 N.am   72  PHE72      -0.1973
     31  CA       103.6650 -100.0710  258.6860 C.3    72  PHE72       0.1639
     32  C        102.5130 -100.9050  258.1440 C.2    72  PHE72       0.2290
     33  O        102.3900 -101.0840  256.9340 O.2    72  PHE72      -0.2864
     34  CB       104.8960 -100.9330  258.9690 C.3    72  PHE72       0.0560
     35  CG       106.1460 -100.1220  259.1980 C.ar   72  PHE72      -0.0200
     36  CD1      106.4090  -99.5580  260.4440 C.ar   72  PHE72      -0.0042
     37  CD2      107.0160  -99.8510  258.1430 C.ar   72  PHE72      -0.0042
     38  CE1      107.5190  -98.7290  260.6410 C.ar   72  PHE72      -0.0003
     39  CE2      108.1320  -99.0210  258.3260 C.ar   72  PHE72      -0.0003
     40  CZ       108.3800  -98.4590  259.5810 C.ar   72  PHE72      -0.0000
     41  N         95.6080 -102.9030  264.7180 N.3    90  GLN90      -0.1245
     42  CA        96.1620 -104.0210  265.4710 C.3    90  GLN90       0.1566
     43  C         95.0320 -104.6670  266.2620 C.2    90  GLN90       0.2260
     44  O         93.9360 -104.1140  266.3720 O.2    90  GLN90      -0.2867
     45  CB        97.2410 -103.5410  266.4500 C.3    90  GLN90       0.0367
     46  CG        98.4840 -102.9580  265.7990 C.3    90  GLN90       0.0905
     47  CD        99.4030 -102.2960  266.8200 C.2    90  GLN90       0.2608
     48  OE1       98.9480 -101.5230  267.6610 O.2    90  GLN90      -0.2717
     49  NE2      100.6960 -102.5920  266.7450 N.am   90  GLN90      -0.0878
     50  N         94.7850 -104.9420  269.4010 N.3    92  LYS92      -0.1245
     51  CA        94.4560 -104.1520  270.5840 C.3    92  LYS92       0.1561
     52  C         93.5350 -102.9820  270.2780 C.2    92  LYS92       0.2260
     53  O         92.9640 -102.3840  271.1850 O.2    92  LYS92      -0.2867
     54  CB        95.7310 -103.6650  271.2910 C.3    92  LYS92       0.0271
     55  CG        96.7820 -103.0410  270.3980 C.3    92  LYS92       0.0035
     56  CD        98.1630 -103.3400  270.9590 C.3    92  LYS92       0.0206
     57  CE        98.8640 -102.0940  271.4410 C.3    92  LYS92       0.1093
     58  NZ        99.0620 -101.1060  270.3470 N.3    92  LYS92      -0.1314
     59  N         94.4300 -100.1940  268.1640 N.3    94  THR94      -0.1218
     60  CA        95.1690  -99.0910  267.5590 C.3    94  THR94       0.1862
     61  C         94.9150  -99.0450  266.0620 C.2    94  THR94       0.2287
     62  O         95.0450 -100.0530  265.3700 O.2    94  THR94      -0.2866
     63  CB        96.6730  -99.2300  267.8060 C.3    94  THR94       0.1770
     64  OG1       96.8960  -99.6100  269.1680 O.3    94  THR94      -0.2211
     65  CG2       97.3730  -97.9000  267.5350 C.3    94  THR94       0.0375
     66  N         95.1940  -96.6240  262.2100 N.3    96  VAL96      -0.1245
     67  CA        95.7530  -95.5270  261.4340 C.3    96  VAL96       0.1561
     68  C         95.2590  -95.5430  259.9930 C.2    96  VAL96       0.2260
     69  O         95.0970  -96.6020  259.3860 O.2    96  VAL96      -0.2867
     70  CB        97.3090  -95.5520  261.4210 C.3    96  VAL96       0.0252
     71  CG1       97.8090  -96.9730  261.3980 C.3    96  VAL96       0.0019
     72  CG2       97.8360  -94.8070  260.1900 C.3    96  VAL96       0.0019
     73  N        105.9980  -93.6130  259.3340 N.3   105  LEU105     -0.1231
     74  CA       105.5750  -93.1310  260.6420 C.3   105  LEU105      0.1693
     75  C        104.7090  -91.8840  260.6250 C.2   105  LEU105      0.2593
     76  O        104.3380  -91.3600  261.6740 O.2   105  LEU105     -0.2718
     77  CB       106.7880  -92.9190  261.5390 C.3   105  LEU105      0.0284
     78  CG       107.5210  -94.2400  261.7740 C.3   105  LEU105      0.0019
     79  CD1      108.5830  -94.0600  262.8430 C.3   105  LEU105      0.0001
     80  CD2      106.5250  -95.2960  262.1970 C.3   105  LEU105      0.0001
     81  N        104.4000  -91.3910  259.4350 N.am  106  SER106     -0.1938
     82  CA       103.5210  -90.2460  259.3310 C.3   106  SER106      0.2055
     83  C        102.1710  -90.8870  259.0240 C.2   106  SER106      0.2643
     84  O        102.0610  -92.1140  259.0170 O.2   106  SER106     -0.2714
     85  CB       103.9480  -89.3250  258.1940 C.3   106  SER106      0.2130
     86  OG       103.0810  -88.2050  258.1190 O.3   106  SER106     -0.2179
     87  N        101.1510  -90.0780  258.7690 N.am  107  ASN107     -0.1971
     88  CA        99.8280  -90.6150  258.4740 C.3   107  ASN107      0.1688
     89  C         98.8420  -89.4920  258.1890 C.2   107  ASN107      0.2292
     90  O         99.1790  -88.3180  258.2740 O.2   107  ASN107     -0.2864
     91  CB        99.3100  -91.4020  259.6750 C.3   107  ASN107      0.1181
     92  CG        99.3310  -90.5800  260.9490 C.2   107  ASN107      0.2629
     93  OD1      100.2640  -90.6720  261.7500 O.2   107  ASN107     -0.2716
     94  ND2       98.3120  -89.7590  261.1350 N.am  107  ASN107     -0.0877
     95  N         95.4470  -90.7080  262.9840 N.3   110  LEU110     -0.1245
     96  CA        95.9600  -91.6580  263.9540 C.3   110  LEU110      0.1561
     97  C         95.0000  -91.8060  265.1220 C.2   110  LEU110      0.2260
     98  O         94.3170  -90.8570  265.5040 O.2   110  LEU110     -0.2867
     99  CB        97.3200  -91.1710  264.4590 C.3   110  LEU110      0.0270
    100  CG        97.8930  -91.9180  265.6560 C.3   110  LEU110      0.0019
    101  CD1       98.0660  -93.3830  265.2890 C.3   110  LEU110      0.0001
    102  CD2       99.2150  -91.3070  266.0650 C.3   110  LEU110      0.0001
    103  N         95.8160  -93.3420  268.4520 N.3   112  SER112     -0.1202
    104  CA        96.8360  -93.8440  269.3580 C.3   112  SER112      0.2020
    105  C         96.4210  -94.2630  270.7630 C.2   112  SER112      0.2619
    106  O         97.2710  -94.6340  271.5700 O.2   112  SER112     -0.2717
    107  CB        97.9400  -92.7940  269.4520 C.3   112  SER112      0.2103
    108  OG        97.3860  -91.5440  269.8210 O.3   112  SER112     -0.2182
    109  N         95.1330  -94.1790  271.0710 N.am  113  GLN113     -0.1965
    110  CA        94.6430  -94.5900  272.3810 C.3   113  GLN113      0.1733
    111  C         93.4370  -95.5020  272.1480 C.2   113  GLN113      0.2616
    112  O         92.2870  -95.1300  272.3900 O.2   113  GLN113     -0.2715
    113  CB        94.2740  -93.3600  273.2240 C.3   113  GLN113      0.0408
    114  CG        95.4990  -92.5600  273.6840 C.3   113  GLN113      0.0908
    115  CD        95.1450  -91.3030  274.4670 C.2   113  GLN113      0.2608
    116  OE1       94.2970  -91.3310  275.3580 O.2   113  GLN113     -0.2717
    117  NE2       95.8120  -90.1930  274.1460 N.am  113  GLN113     -0.0878
    118  N         93.7360  -96.7000  271.6610 N.am  114  ALA114     -0.1964
    119  CA        92.7300  -97.7110  271.3370 C.3   114  ALA114      0.1713
    120  C         91.5810  -97.8110  272.3330 C.2   114  ALA114      0.2458
    121  O         90.4160  -97.7540  271.9470 O.2   114  ALA114     -0.2730
    122  CB        93.4000  -99.0700  271.1750 C.3   114  ALA114      0.0333
    123  N         91.8910  -97.9510  273.6320 N.am  115  PRO115     -0.2727
    124  CA        90.8410  -98.0570  274.6430 C.3   115  PRO115      0.1402
    125  C         89.7300  -97.0270  274.5250 C.2   115  PRO115      0.2269
    126  O         88.6240  -97.2540  275.0010 O.2   115  PRO115     -0.2865
    127  CB        91.6150  -97.9190  275.9480 C.3   115  PRO115      0.0296
    128  CG        92.8970  -98.6010  275.6190 C.3   115  PRO115      0.0237
    129  CD        93.2210  -98.0180  274.2630 C.3   115  PRO115      0.0939
    130  N         90.8020  -88.0560  270.3610 N.3   144  VAL144     -0.1231
    131  CA        90.3780  -88.2170  271.7480 C.3   144  VAL144      0.1692
    132  C         91.6000  -88.5310  272.5960 C.2   144  VAL144      0.2592
    133  O         92.5620  -89.1430  272.1260 O.2   144  VAL144     -0.2718
    134  CB        89.3350  -89.3490  271.9100 C.3   144  VAL144      0.0266
    135  CG1       88.0350  -88.9440  271.2470 C.3   144  VAL144      0.0020
    136  CG2       89.8560  -90.6310  271.2990 C.3   144  VAL144      0.0020
    137  N         91.5570  -88.1170  273.8540 N.am  145  ASN145     -0.1974
    138  CA        92.6890  -88.3260  274.7410 C.3   145  ASN145      0.1688
    139  C         92.2600  -88.4390  276.1920 C.2   145  ASN145      0.2292
    140  O         91.4340  -87.6650  276.6720 O.2   145  ASN145     -0.2864
    141  CB        93.6700  -87.1580  274.5800 C.3   145  ASN145      0.1181
    142  CG        94.7860  -87.1780  275.6050 C.2   145  ASN145      0.2629
    143  OD1       95.6260  -88.0760  275.6090 O.2   145  ASN145     -0.2716
    144  ND2       94.8010  -86.1810  276.4820 N.am  145  ASN145     -0.0877
    145  N         94.6900  -93.3590  280.3220 N.3   149  VAL149     -0.1231
    146  CA        94.6780  -94.5490  279.4730 C.3   149  VAL149      0.1692
    147  C         95.9810  -95.3400  279.5860 C.2   149  VAL149      0.2591
    148  O         95.9580  -96.5660  279.7260 O.2   149  VAL149     -0.2718
    149  CB        94.4300  -94.1960  277.9890 C.3   149  VAL149      0.0266
    150  CG1       94.5510  -95.4520  277.1210 C.3   149  VAL149      0.0020
    151  CG2       93.0480  -93.5890  277.8340 C.3   149  VAL149      0.0020
    152  N         97.1130  -94.6450  279.5210 N.am  150  ARG150     -0.1980
    153  CA        98.4040  -95.3150  279.6350 C.3   150  ARG150      0.1597
    154  C         98.5380  -95.9910  280.9940 C.2   150  ARG150      0.2287
    155  O         98.9170  -97.1560  281.0770 O.2   150  ARG150     -0.2864
    156  CB        99.5500  -94.3180  279.4330 C.3   150  ARG150      0.0334
    157  CG       100.9090  -94.8210  279.9190 C.3   150  ARG150      0.0492
    158  CD       102.0080  -93.9040  279.4180 C.3   150  ARG150      0.2205
    159  NE       101.6060  -92.5110  279.5530 N.pl3 150  ARG150     -0.0865
    160  CZ       101.8740  -91.5670  278.6610 C.cat 150  ARG150      0.5346
    161  NH1      102.5530  -91.8670  277.5600 N.pl3 150  ARG150      0.1354
    162  NH2      101.4470  -90.3290  278.8630 N.pl3 150  ARG150      0.1354
    163  N         96.0500  -98.8590  280.7520 N.3   153  PHE153     -0.1227
    164  CA        96.2430  -99.8460  279.6890 C.3   153  PHE153      0.1736
    165  C         97.6060 -100.1270  279.0550 C.2   153  PHE153      0.2595
    166  O         97.7590 -101.1500  278.3930 O.2   153  PHE153     -0.2718
    167  CB        95.2780  -99.5100  278.5500 C.3   153  PHE153      0.0547
    168  CG        93.8320  -99.6060  278.9270 C.ar  153  PHE153     -0.0202
    169  CD1       93.2130 -100.8460  279.0530 C.ar  153  PHE153     -0.0042
    170  CD2       93.0850  -98.4610  279.1400 C.ar  153  PHE153     -0.0042
    171  CE1       91.8560 -100.9380  279.3830 C.ar  153  PHE153     -0.0003
    172  CE2       91.7310  -98.5390  279.4710 C.ar  153  PHE153     -0.0003
    173  CZ        91.1160  -99.7770  279.5910 C.ar  153  PHE153     -0.0000
    174  N         98.5920  -99.2550  279.2270 N.am  154  MET154     -0.1979
    175  CA        99.8770  -99.4930  278.5710 C.3   154  MET154      0.1605
    176  C        100.4750 -100.8870  278.7190 C.2   154  MET154      0.2287
    177  O        100.8720 -101.5020  277.7250 O.2   154  MET154     -0.2864
    178  CB       100.9240  -98.4800  279.0080 C.3   154  MET154      0.0413
    179  CG       102.2260  -98.6790  278.2550 C.3   154  MET154      0.0598
    180  SD       103.3360  -97.2840  278.3540 S.3   154  MET154     -0.1393
    181  CE       102.7030  -96.2720  277.0690 C.3   154  MET154      0.0692
    182  N         98.5260 -103.1970  276.8160 N.3   157  ALA157     -0.1245
    183  CA        98.7410 -102.9760  275.3940 C.3   157  ALA157      0.1562
    184  C         99.9760 -103.7520  274.9720 C.2   157  ALA157      0.2260
    185  O         99.9820 -104.4120  273.9330 O.2   157  ALA157     -0.2867
    186  CB        98.9250 -101.4850  275.1090 C.3   157  ALA157      0.0290
    187  N        100.2670 -106.6230  272.3180 N.3   161  HIS161     -0.1241
    188  CA       101.1620 -106.4860  271.1840 C.3   161  HIS161      0.1621
    189  C        102.1770 -107.6160  271.1560 C.2   161  HIS161      0.2264
    190  O        102.6240 -108.0300  270.0840 O.2   161  HIS161     -0.2867
    191  CB       101.8890 -105.1440  271.2280 C.3   161  HIS161      0.0745
    192  CG       102.5880 -104.8080  269.9500 C.ar  161  HIS161      0.0817
    193  ND1      103.9460 -104.5850  269.8750 N.ar  161  HIS161     -0.2268
    194  CD2      102.1130 -104.6590  268.6920 C.ar  161  HIS161      0.1154
    195  CE1      104.2780 -104.3120  268.6270 C.ar  161  HIS161      0.1986
    196  NE2      103.1830 -104.3510  267.8880 N.ar  161  HIS161     -0.2212
@<TRIPOS>BOND
     1    33    32    2
     2    86    85    1
     3    37    39   ar
     4    37    35   ar
     5    32    31    1
     6    89    90    2
     7    89    88    1
     8    85    82    1
     9    39    40   ar
    10    88    87    1
    11    88    91    1
    12    31    34    1
    13    31    30    1
    14    87    83   am
    15    27    26    2
    16    34    35    1
    17    84    83    2
    18    83    82    1
    19    35    36   ar
    20    82    81    1
    21    73    74    1
    22    69    68    2
    23    81    75   am
    24    40    38   ar
    25    91    92    1
    26    26    30   am
    27    26    25    1
    28    68    67    1
    29    72    70    1
    30    36    38   ar
    31    75    74    1
    32    75    76    2
    33    74    77    1
    34    92    94   am
    35    92    93    2
    36    20    19    2
    37    25    28    1
    38    25    24    1
    39    71    70    1
    40    70    67    1
    41    67    66    1
    42    28    29    1
    43    77    78    1
    44    78    80    1
    45    78    79    1
    46    12    11    2
    47    19    24   am
    48    19    18    1
    49    15    14   ar
    50    95    96    1
    51    18    17    1
    52    18    21    1
    53    11    17   am
    54    11    10    1
    55    23    21    1
    56    13    14    1
    57    13    10    1
    58     9    10    1
    59    14    16   ar
    60    96    99    1
    61    96    97    1
    62    21    22    1
    63    99   100    1
    64    41    42    1
    65    97    98    2
    66   101   100    1
    67    62    61    2
    68    42    43    1
    69    42    45    1
    70   100   102    1
    71    46    45    1
    72    46    47    1
    73    61    60    1
    74    43    44    2
    75    49    47   am
    76    47    48    2
    77    65    63    1
    78    60    63    1
    79    60    59    1
    80    63    64    1
    81   196   195   ar
    82   196   194   ar
    83   103   104    1
    84   195   193   ar
    85   194   192   ar
    86   104   107    1
    87   104   105    1
    88    50    51    1
    89   107   108    1
    90   193   192   ar
    91   192   191    1
    92   190   189    2
    93    52    51    1
    94    52    53    2
    95    58    57    1
    96   130   131    1
    97    55    56    1
    98    55    54    1
    99    51    54    1
   100   105   109   am
   101   105   106    2
   102    56    57    1
   103   109   110    1
   104   189   188    1
   105   122   119    1
   106   188   191    1
   107   188   187    1
   108   135   134    1
   109   136   134    1
   110   119   118    1
   111   119   120    1
   112   118   111   am
   113   131   134    1
   114   131   132    1
   115   121   120    2
   116   133   132    2
   117   111   110    1
   118   111   112    2
   119   120   123   am
   120   110   113    1
   121   132   137   am
   122   113   114    1
   123   123   129    1
   124   123   124    1
   125   114   115    1
   126     1     2    1
   127   137   138    1
   128   185   184    2
   129   117   115   am
   130   129   128    1
   131     6     7    1
   132     6     8    1
   133     6     5    1
   134   115   116    2
   135   125   124    1
   136   125   126    2
   137   141   138    1
   138   141   142    1
   139   124   127    1
   140   138   139    1
   141   184   183    1
   142     2     5    1
   143     2     3    1
   144   186   183    1
   145   183   182    1
   146   142   143    2
   147   142   144   am
   148   128   127    1
   149     3     4    2
   150   139   140    2
   151   181   180    1
   152   150   149    1
   153   161   160    1
   154   177   176    2
   155   151   149    1
   156   149   146    1
   157   179   180    1
   158   179   178    1
   159   166   165    2
   160   167   168    1
   161   167   164    1
   162   175   176    1
   163   175   178    1
   164   175   174    1
   165   160   162    1
   166   160   159    2
   167   168   169   ar
   168   168   170   ar
   169   169   171   ar
   170   165   174   am
   171   165   164    1
   172   170   172   ar
   173   171   173   ar
   174   158   159    1
   175   158   157    1
   176   156   153    1
   177   156   157    1
   178   172   173   ar
   179   146   147    1
   180   146   145    1
   181   152   147   am
   182   152   153    1
   183   147   148    2
   184   153   154    1
   185   164   163    1
   186   154   155    2
