@<TRIPOS>MOLECULE
tmp/1ix1B00.pdb
 142 139 0 0 0
SMALL
GASTEIGER

@<TRIPOS>ATOM
      1  N         45.4470   91.9850   43.2160 N.3    42  PRO42      -0.2102
      2  CA        46.2070   91.6710   42.0040 C.3    42  PRO42       0.1504
      3  C         46.3000   92.8500   41.0340 C.2    42  PRO42       0.2576
      4  O         45.4930   93.7840   41.0800 O.2    42  PRO42      -0.2718
      5  CB        45.4150   90.5200   41.4090 C.3    42  PRO42       0.0282
      6  CG        44.0000   90.9920   41.6400 C.3    42  PRO42       0.0208
      7  CD        44.0330   91.5900   43.0500 C.3    42  PRO42       0.0893
      8  N         47.2950   92.7810   40.1570 N.am   43  GLY43      -0.1943
      9  CA        47.5090   93.8040   39.1490 C.3    43  GLY43       0.2014
     10  C         48.0230   93.1070   37.8990 C.2    43  GLY43       0.2639
     11  O         48.3690   91.9270   37.9640 O.2    43  GLY43      -0.2714
     12  N         48.0660   93.8070   36.7680 N.am   44  ILE44      -0.1963
     13  CA        48.5530   93.2030   35.5260 C.3    44  ILE44       0.1727
     14  C         49.9730   93.6520   35.1870 C.2    44  ILE44       0.2616
     15  O         50.5620   93.1990   34.2020 O.2    44  ILE44      -0.2715
     16  CB        47.6320   93.5270   34.3280 C.3    44  ILE44       0.0290
     17  CG1       47.5620   95.0380   34.1020 C.3    44  ILE44       0.0022
     18  CG2       46.2340   92.9570   34.5820 C.3    44  ILE44       0.0023
     19  CD1       46.8090   95.4240   32.8360 C.3    44  ILE44       0.0001
     20  N         50.5150   94.5390   36.0100 N.am   45  GLY45      -0.1955
     21  CA        51.8690   95.0240   35.7970 C.3    45  GLY45       0.1869
     22  C         52.4380   95.5480   37.1020 C.2    45  GLY45       0.2309
     23  O         51.6830   95.8180   38.0290 O.2    45  GLY45      -0.2863
     24  N         57.8060  100.6250   42.5250 N.3    50  GLN50      -0.1245
     25  CA        56.6570  100.4400   43.3960 C.3    50  GLN50       0.1566
     26  C         56.9070   99.6090   44.6500 C.2    50  GLN50       0.2260
     27  O         56.1560   99.7140   45.6140 O.2    50  GLN50      -0.2867
     28  CB        55.5000   99.8520   42.5970 C.3    50  GLN50       0.0367
     29  CG        54.8700  100.8490   41.6450 C.3    50  GLN50       0.0905
     30  CD        53.7860  100.2160   40.8100 C.2    50  GLN50       0.2608
     31  OE1       54.0720   99.4910   39.8590 O.2    50  GLN50      -0.2717
     32  NE2       52.5260  100.4650   41.1750 N.am   50  GLN50      -0.0878
     33  N         42.1320  105.5240   27.9870 N.3    87  TYR87      -0.1227
     34  CA        41.8940  104.3090   28.7500 C.3    87  TYR87       0.1736
     35  C         41.7490  104.6960   30.2140 C.2    87  TYR87       0.2595
     36  O         42.4800  105.5580   30.7070 O.2    87  TYR87      -0.2718
     37  CB        43.0700  103.3400   28.5910 C.3    87  TYR87       0.0548
     38  CG        42.7540  101.9270   29.0170 C.ar   87  TYR87      -0.0200
     39  CD1       42.2960  100.9860   28.0960 C.ar   87  TYR87      -0.0009
     40  CD2       42.8730  101.5400   30.3500 C.ar   87  TYR87      -0.0009
     41  CE1       41.9610   99.6930   28.4940 C.ar   87  TYR87       0.0417
     42  CE2       42.5410  100.2530   30.7580 C.ar   87  TYR87       0.0417
     43  CZ        42.0860   99.3360   29.8270 C.ar   87  TYR87       0.1957
     44  OH        41.7500   98.0700   30.2370 O.3    87  TYR87      -0.2866
     45  N         40.8010  104.0800   30.9090 N.am   88  GLN88      -0.1965
     46  CA        40.6250  104.3890   32.3180 C.3    88  GLN88       0.1733
     47  C         41.6180  103.5150   33.0650 C.2    88  GLN88       0.2616
     48  O         41.4540  102.2960   33.1510 O.2    88  GLN88      -0.2715
     49  CB        39.1980  104.0910   32.7780 C.3    88  GLN88       0.0408
     50  CG        38.8190  104.8720   34.0230 C.3    88  GLN88       0.0908
     51  CD        37.3760  104.6660   34.4300 C.2    88  GLN88       0.2608
     52  OE1       36.4940  104.5460   33.5830 O.2    88  GLN88      -0.2717
     53  NE2       37.1260  104.6440   35.7320 N.am   88  GLN88      -0.0878
     54  N         42.6540  104.1560   33.5950 N.am   89  GLU89      -0.1963
     55  CA        43.7180  103.4630   34.2990 C.3    89  GLU89       0.1733
     56  C         43.6100  103.4450   35.8120 C.2    89  GLU89       0.2617
     57  O         43.0920  104.3740   36.4300 O.2    89  GLU89      -0.2715
     58  CB        45.0700  104.0820   33.9260 C.3    89  GLU89       0.0429
     59  CG        45.4530  103.9370   32.4680 C.3    89  GLU89       0.1163
     60  CD        46.8080  104.5520   32.1650 C.2    89  GLU89       0.3649
     61  OE1       47.6880  104.5240   33.0510 O.co2  89  GLU89      -0.2457
     62  OE2       46.9950  105.0520   31.0400 O.co2  89  GLU89      -0.2457
     63  N         44.1270  102.3650   36.3880 N.am   90  GLY90      -0.1940
     64  CA        44.1720  102.1970   37.8250 C.3    90  GLY90       0.2014
     65  C         45.6380  101.9370   38.1360 C.2    90  GLY90       0.2639
     66  O         46.4160  101.6580   37.2190 O.2    90  GLY90      -0.2714
     67  N         46.0170  102.0190   39.4070 N.am   91  CYS91      -0.1953
     68  CA        47.4030  101.8020   39.8190 C.3    91  CYS91       0.1843
     69  C         47.4420  101.1950   41.2180 C.2    91  CYS91       0.2625
     70  O         46.6860  101.6090   42.0950 O.2    91  CYS91      -0.2714
     71  CB        48.1520  103.1420   39.8160 C.3    91  CYS91       0.0997
     72  SG        49.9200  103.0650   40.2070 S.3    91  CYS91      -0.0797
     73  N         48.3130  100.2130   41.4320 N.am   92  LEU92      -0.1977
     74  CA        48.4180   99.5880   42.7470 C.3    92  LEU92       0.1596
     75  C         48.9450  100.5850   43.7870 C.2    92  LEU92       0.2287
     76  O         48.7280  100.4130   44.9850 O.2    92  LEU92      -0.2864
     77  CB        49.3300   98.3520   42.6880 C.3    92  LEU92       0.0297
     78  CG        48.8240   97.1910   41.8200 C.3    92  LEU92       0.0022
     79  CD1       49.8610   96.0760   41.7820 C.3    92  LEU92       0.0001
     80  CD2       47.5080   96.6770   42.3670 C.3    92  LEU92       0.0001
     81  N         40.3560  105.1800   39.5720 N.3    98  TYR98      -0.1241
     82  CA        40.4450  104.8980   38.1470 C.3    98  TYR98       0.1605
     83  C         40.0540  106.1570   37.3880 C.2    98  TYR98       0.2264
     84  O         38.9610  106.6940   37.5770 O.2    98  TYR98      -0.2867
     85  CB        39.5230  103.7290   37.7820 C.3    98  TYR98       0.0534
     86  CG        39.7550  102.5200   38.6610 C.ar   98  TYR98      -0.0201
     87  CD1       39.1200  102.4020   39.8980 C.ar   98  TYR98      -0.0009
     88  CD2       40.6760  101.5380   38.2970 C.ar   98  TYR98      -0.0009
     89  CE1       39.4010  101.3370   40.7550 C.ar   98  TYR98       0.0417
     90  CE2       40.9660  100.4710   39.1460 C.ar   98  TYR98       0.0417
     91  CZ        40.3260  100.3790   40.3740 C.ar   98  TYR98       0.1957
     92  OH        40.6180   99.3350   41.2220 O.3    98  TYR98      -0.2866
     93  N         46.0350   97.0620   25.3330 N.3   126  LEU126     -0.1245
     94  CA        46.4270   96.9810   26.7320 C.3   126  LEU126      0.1561
     95  C         47.9390   96.9220   26.9430 C.2   126  LEU126      0.2260
     96  O         48.4580   97.5370   27.8760 O.2   126  LEU126     -0.2867
     97  CB        45.7550   95.7720   27.3890 C.3   126  LEU126      0.0270
     98  CG        45.7860   95.7270   28.9190 C.3   126  LEU126      0.0019
     99  CD1       45.2350   97.0320   29.4930 C.3   126  LEU126      0.0001
    100  CD2       44.9700   94.5380   29.3980 C.3   126  LEU126      0.0001
    101  N         49.3240  100.4110   26.6550 N.3   129  VAL129     -0.1231
    102  CA        48.9610  101.2270   27.8080 C.3   129  VAL129      0.1692
    103  C         49.8150  100.8540   29.0220 C.2   129  VAL129      0.2592
    104  O         50.3900  101.7240   29.6880 O.2   129  VAL129     -0.2718
    105  CB        47.4650  101.0480   28.1680 C.3   129  VAL129      0.0266
    106  CG1       47.1110  101.8790   29.4010 C.3   129  VAL129      0.0020
    107  CG2       46.5980  101.4650   26.9840 C.3   129  VAL129      0.0020
    108  N         49.9190   99.5560   29.2900 N.am  130  CYS130     -0.1970
    109  CA        50.6760   99.0840   30.4410 C.3   130  CYS130      0.1712
    110  C         52.1640   99.4340   30.3810 C.2   130  CYS130      0.2296
    111  O         52.7220   99.9150   31.3650 O.2   130  CYS130     -0.2864
    112  CB        50.4960   97.5690   30.6000 C.3   130  CYS130      0.0983
    113  SG        51.1080   96.8900   32.1750 S.3   130  CYS130     -0.0798
    114  N         52.6230  103.0260   31.1900 N.3   133  HIS133     -0.1226
    115  CA        52.3040  103.2320   32.6010 C.3   133  HIS133      0.1752
    116  C         53.4780  102.7650   33.4770 C.2   133  HIS133      0.2595
    117  O         53.8740  103.4690   34.4080 O.2   133  HIS133     -0.2718
    118  CB        51.0300  102.4510   32.9470 C.3   133  HIS133      0.0759
    119  CG        50.6170  102.5340   34.3870 C.ar  133  HIS133      0.0818
    120  ND1       49.4320  103.1180   34.7840 N.ar  133  HIS133     -0.2268
    121  CD2       51.1820  102.0310   35.5110 C.ar  133  HIS133      0.1154
    122  CE1       49.2830  102.9660   36.0890 C.ar  133  HIS133      0.1986
    123  NE2       50.3300  102.3080   36.5540 N.ar  133  HIS133     -0.2212
    124  N         54.0390  101.5950   33.1700 N.am  134  GLU134     -0.1979
    125  CA        55.1580  101.0520   33.9480 C.3   134  GLU134      0.1602
    126  C         56.4450  101.8540   33.7600 C.2   134  GLU134      0.2287
    127  O         57.1670  102.1170   34.7250 O.2   134  GLU134     -0.2864
    128  CB        55.4300   99.5900   33.5780 C.3   134  GLU134      0.0415
    129  CG        54.2580   98.6270   33.7880 C.3   134  GLU134      0.1163
    130  CD        53.6360   98.7200   35.1710 C.2   134  GLU134      0.3649
    131  OE1       54.3450   99.0910   36.1360 O.co2 134  GLU134     -0.2457
    132  OE2       52.4300   98.4010   35.2930 O.co2 134  GLU134     -0.2457
    133  N         56.5220  104.8990   35.8930 N.3   137  HIS137     -0.1241
    134  CA        56.9030  104.6450   37.2790 C.3   137  HIS137      0.1621
    135  C         58.4190  104.7270   37.4420 C.2   137  HIS137      0.2264
    136  O         58.9180  105.2820   38.4180 O.2   137  HIS137     -0.2867
    137  CB        56.4490  103.2550   37.7230 C.3   137  HIS137      0.0745
    138  CG        55.0410  103.1980   38.2320 C.ar  137  HIS137      0.0817
    139  ND1       54.6120  103.9270   39.3230 N.ar  137  HIS137     -0.2268
    140  CD2       53.9800  102.4560   37.8360 C.ar  137  HIS137      0.1154
    141  CE1       53.3490  103.6310   39.5770 C.ar  137  HIS137      0.1986
    142  NE2       52.9430  102.7410   38.6900 N.ar  137  HIS137     -0.2212
@<TRIPOS>BOND
     1    93    94    1
     2   101   102    1
     3    94    95    1
     4    94    97    1
     5    95    96    2
     6   107   105    1
     7    97    98    1
     8   102   105    1
     9   102   103    1
    10    33    34    1
    11    39    41   ar
    12    39    38   ar
    13   105   106    1
    14    41    43   ar
    15    37    34    1
    16    37    38    1
    17    34    35    1
    18    98   100    1
    19    98    99    1
    20    38    40   ar
    21   103   108   am
    22   103   104    2
    23   108   109    1
    24    43    44    1
    25    43    42   ar
    26    35    36    2
    27    35    45   am
    28    40    42   ar
    29   110   109    1
    30   110   111    2
    31   109   112    1
    32   112   113    1
    33    45    46    1
    34    62    60   ar
    35   114   115    1
    36    60    59    1
    37    60    61   ar
    38    46    49    1
    39    46    47    1
    40    59    58    1
    41   115   118    1
    42   115   116    1
    43    49    50    1
    44    19    17    1
    45   118   119    1
    46    47    48    2
    47    47    54   am
    48   124   116   am
    49   124   125    1
    50   116   117    2
    51   128   129    1
    52   128   125    1
    53    52    51    2
    54    54    55    1
    55   126   125    1
    56   126   127    2
    57   129   130    1
    58    58    55    1
    59    50    51    1
    60    17    16    1
    61    15    14    2
    62    55    56    1
    63    16    18    1
    64    16    13    1
    65   119   120   ar
    66   119   121   ar
    67    51    53   am
    68   120   122   ar
    69   130   132   ar
    70   130   131   ar
    71    14    13    1
    72    14    20   am
    73   121   123   ar
    74    13    12    1
    75    21    20    1
    76    21    22    1
    77    56    63   am
    78    56    57    2
    79   133   134    1
    80   122   123   ar
    81    63    64    1
    82    12    10   am
    83    22    23    2
    84    66    65    2
    85   134   135    1
    86   134   137    1
    87    83    84    2
    88    83    82    1
    89   135   136    2
    90   137   138    1
    91    85    82    1
    92    85    86    1
    93    64    65    1
    94   140   138   ar
    95   140   142   ar
    96    10    11    2
    97    10     9    1
    98    65    67   am
    99    82    81    1
   100   138   139   ar
   101    88    86   ar
   102    88    90   ar
   103    86    87   ar
   104   142   141   ar
   105    90    91   ar
   106     9     8    1
   107   139   141   ar
   108    67    68    1
   109    71    68    1
   110    71    72    1
   111    68    69    1
   112    31    30    2
   113    87    89   ar
   114     8     3   am
   115    91    89   ar
   116    91    92    1
   117    30    32   am
   118    30    29    1
   119     3     4    2
   120     3     2    1
   121    69    73   am
   122    69    70    2
   123     5     6    1
   124     5     2    1
   125    73    74    1
   126     6     7    1
   127    29    28    1
   128    79    78    1
   129    78    80    1
   130    78    77    1
   131     2     1    1
   132    24    25    1
   133    28    25    1
   134    77    74    1
   135    74    75    1
   136     7     1    1
   137    25    26    1
   138    75    76    2
   139    26    27    2
