@<TRIPOS>MOLECULE
tmp/1ix3A00.pdb
 199 187 0 0 0
SMALL
GASTEIGER

@<TRIPOS>ATOM
      1  N        -87.6320   -2.3630  -76.3510 N.3     4  SER4       -0.1217
      2  CA       -87.7720   -2.8330  -77.7290 C.3     4  SER4        0.1889
      3  C        -86.5680   -3.6760  -78.1590 C.2     4  SER4        0.2288
      4  O        -86.7140   -4.6460  -78.8980 O.2     4  SER4       -0.2866
      5  CB       -87.9530   -1.6480  -78.6830 C.3     4  SER4        0.2089
      6  OG       -86.8310   -0.7880  -78.6440 O.3     4  SER4       -0.2183
      7  N        -86.4950   -7.8250  -78.7490 N.3     8  LYS8       -0.1245
      8  CA       -85.9870   -8.3470  -80.0100 C.3     8  LYS8        0.1561
      9  C        -84.8930   -9.3850  -79.7620 C.2     8  LYS8        0.2260
     10  O        -84.8910  -10.4570  -80.3710 O.2     8  LYS8       -0.2867
     11  CB       -85.4480   -7.2040  -80.8760 C.3     8  LYS8        0.0271
     12  CG       -84.9380   -7.6440  -82.2450 C.3     8  LYS8        0.0035
     13  CD       -84.7700   -6.4610  -83.1900 C.3     8  LYS8        0.0206
     14  CE       -83.7660   -5.4520  -82.6590 C.3     8  LYS8        0.1093
     15  NZ       -82.4070   -6.0480  -82.5050 N.3     8  LYS8       -0.1314
     16  N        -86.1940  -12.7030  -78.2120 N.3    11  THR11      -0.1218
     17  CA       -87.0410  -13.5590  -79.0390 C.3    11  THR11       0.1862
     18  C        -86.4350  -13.9360  -80.3840 C.2    11  THR11       0.2287
     19  O        -87.0710  -14.6200  -81.1850 O.2    11  THR11      -0.2866
     20  CB       -88.4180  -12.8990  -79.2960 C.3    11  THR11       0.1770
     21  OG1      -88.2340  -11.6330  -79.9470 O.3    11  THR11      -0.2211
     22  CG2      -89.1640  -12.6910  -77.9810 C.3    11  THR11       0.0375
     23  N        -87.8100  -17.0680  -82.5460 N.3    15  HIS15      -0.1241
     24  CA       -88.3890  -16.6260  -83.8140 C.3    15  HIS15       0.1621
     25  C        -87.8780  -17.5160  -84.9460 C.2    15  HIS15       0.2264
     26  O        -88.6470  -17.9610  -85.8010 O.2    15  HIS15      -0.2867
     27  CB       -88.0290  -15.1670  -84.1140 C.3    15  HIS15       0.0745
     28  CG       -88.6380  -14.6540  -85.3830 C.ar   15  HIS15       0.0817
     29  ND1      -88.2920  -15.1410  -86.6270 N.ar   15  HIS15      -0.2268
     30  CD2      -89.6060  -13.7330  -85.5980 C.ar   15  HIS15       0.1154
     31  CE1      -89.0230  -14.5450  -87.5500 C.ar   15  HIS15       0.1986
     32  NE2      -89.8290  -13.6860  -86.9520 N.ar   15  HIS15      -0.2212
     33  N        -89.6500  -20.7060  -84.8070 N.3    18  ALA18      -0.1231
     34  CA       -91.0330  -20.5860  -85.2630 C.3    18  ALA18       0.1694
     35  C        -91.1520  -20.5340  -86.7880 C.2    18  ALA18       0.2591
     36  O        -92.0130  -21.2040  -87.3740 O.2    18  ALA18      -0.2718
     37  CB       -91.6890  -19.3460  -84.6410 C.3    18  ALA18       0.0304
     38  N        -90.2960  -19.7490  -87.4370 N.am   19  GLU19      -0.1979
     39  CA       -90.3580  -19.6470  -88.8890 C.3    19  GLU19       0.1602
     40  C        -89.8940  -20.9270  -89.5810 C.2    19  GLU19       0.2287
     41  O        -90.0860  -21.1030  -90.7890 O.2    19  GLU19      -0.2864
     42  CB       -89.5580  -18.4320  -89.3830 C.3    19  GLU19       0.0415
     43  CG       -88.0810  -18.4290  -89.0920 C.3    19  GLU19       0.1163
     44  CD       -87.4360  -17.1000  -89.4640 C.2    19  GLU19       0.3649
     45  OE1      -87.5710  -16.6750  -90.6330 O.co2  19  GLU19      -0.2457
     46  OE2      -86.7930  -16.4820  -88.5890 O.co2  19  GLU19      -0.2457
     47  N        -95.0130  -23.5070  -91.0000 N.3    24  MET24      -0.1245
     48  CA       -94.4430  -22.3290  -91.6540 C.3    24  MET24       0.1570
     49  C        -93.5080  -22.6520  -92.8110 C.2    24  MET24       0.2261
     50  O        -93.4070  -21.8800  -93.7650 O.2    24  MET24      -0.2867
     51  CB       -93.7330  -21.4450  -90.6270 C.3    24  MET24       0.0387
     52  CG       -94.7080  -20.6970  -89.7250 C.3    24  MET24       0.0595
     53  SD       -95.8760  -19.6960  -90.6970 S.3    24  MET24      -0.1393
     54  CE       -96.3280  -18.4550  -89.4950 C.3    24  MET24       0.0692
     55  N        -95.8740  -23.3910  -95.4750 N.3    27  PHE27      -0.1227
     56  CA       -96.4840  -22.1430  -95.9170 C.3    27  PHE27       0.1736
     57  C        -95.5460  -21.4060  -96.8730 C.2    27  PHE27       0.2595
     58  O        -95.9490  -21.0120  -97.9670 O.2    27  PHE27      -0.2718
     59  CB       -96.8210  -21.2630  -94.7030 C.3    27  PHE27       0.0547
     60  CG       -97.5010  -19.9650  -95.0580 C.ar   27  PHE27      -0.0202
     61  CD1      -96.7570  -18.8340  -95.3640 C.ar   27  PHE27      -0.0042
     62  CD2      -98.8880  -19.8830  -95.1000 C.ar   27  PHE27      -0.0042
     63  CE1      -97.3850  -17.6350  -95.7100 C.ar   27  PHE27      -0.0003
     64  CE2      -99.5240  -18.6900  -95.4450 C.ar   27  PHE27      -0.0003
     65  CZ       -98.7640  -17.5610  -95.7510 C.ar   27  PHE27      -0.0000
     66  N        -94.2910  -21.2360  -96.4640 N.am   28  GLN28      -0.1979
     67  CA       -93.3060  -20.5420  -97.2920 C.3    28  GLN28       0.1601
     68  C        -93.0130  -21.2920  -98.5940 C.2    28  GLN28       0.2287
     69  O        -92.4460  -20.7240  -99.5280 O.2    28  GLN28      -0.2864
     70  CB       -92.0090  -20.3320  -96.5040 C.3    28  GLN28       0.0394
     71  CG       -92.2150  -19.6010  -95.1870 C.3    28  GLN28       0.0908
     72  CD       -90.9320  -19.4550  -94.3880 C.2    28  GLN28       0.2608
     73  OE1      -90.0560  -18.6550  -94.7300 O.2    28  GLN28      -0.2717
     74  NE2      -90.8120  -20.2360  -93.3180 N.am   28  GLN28      -0.0878
     75  N        -96.4800   -7.0930  -78.6180 N.3   124  TYR124     -0.1227
     76  CA       -95.2250   -7.0320  -79.3640 C.3   124  TYR124      0.1736
     77  C        -95.1040   -8.2600  -80.2710 C.2   124  TYR124      0.2596
     78  O        -94.8990   -8.1430  -81.4820 O.2   124  TYR124     -0.2718
     79  CB       -94.0350   -7.0030  -78.3940 C.3   124  TYR124      0.0548
     80  CG       -92.7170   -7.4010  -79.0250 C.ar  124  TYR124     -0.0200
     81  CD1      -91.9820   -6.4930  -79.7890 C.ar  124  TYR124     -0.0009
     82  CD2      -92.2280   -8.7040  -78.8970 C.ar  124  TYR124     -0.0009
     83  CE1      -90.7940   -6.8730  -80.4160 C.ar  124  TYR124      0.0417
     84  CE2      -91.0420   -9.0970  -79.5210 C.ar  124  TYR124      0.0417
     85  CZ       -90.3320   -8.1760  -80.2790 C.ar  124  TYR124      0.1957
     86  OH       -89.1750   -8.5620  -80.9160 O.3   124  TYR124     -0.2866
     87  N        -95.2420   -9.4370  -79.6690 N.am  125  THR125     -0.1939
     88  CA       -95.1150  -10.6910  -80.3990 C.3   125  THR125      0.2028
     89  C        -96.0040  -10.7740  -81.6310 C.2   125  THR125      0.2642
     90  O        -95.5450  -11.1770  -82.6980 O.2   125  THR125     -0.2714
     91  CB       -95.3960  -11.9030  -79.4780 C.3   125  THR125      0.1808
     92  OG1      -94.4360  -11.9230  -78.4110 O.3   125  THR125     -0.2208
     93  CG2      -95.2790  -13.2120  -80.2610 C.3   125  THR125      0.0379
     94  N        -97.2690  -10.3830  -81.4970 N.am  126  ARG126     -0.1977
     95  CA       -98.1750  -10.4390  -82.6360 C.3   126  ARG126      0.1597
     96  C        -98.0800   -9.2400  -83.5850 C.2   126  ARG126      0.2287
     97  O        -97.7240   -9.4130  -84.7500 O.2   126  ARG126     -0.2864
     98  CB       -99.6210  -10.6130  -82.1630 C.3   126  ARG126      0.0334
     99  CG       -99.9710  -12.0230  -81.6610 C.3   126  ARG126      0.0492
    100  CD       -99.5780  -13.1180  -82.6680 C.3   126  ARG126      0.2205
    101  NE       -99.8570  -12.7240  -84.0470 N.pl3 126  ARG126     -0.0865
    102  CZ       -99.6520  -13.4950  -85.1120 C.cat 126  ARG126      0.5346
    103  NH1      -99.1730  -14.7230  -84.9690 N.pl3 126  ARG126      0.1354
    104  NH2      -99.8900  -13.0210  -86.3290 N.pl3 126  ARG126      0.1354
    105  N        -95.9400   -6.4530  -83.9680 N.3   128  LEU128     -0.1231
    106  CA       -94.6920   -6.0940  -84.6310 C.3   128  LEU128      0.1693
    107  C        -94.3320   -7.0770  -85.7280 C.2   128  LEU128      0.2592
    108  O        -93.6460   -6.7200  -86.6900 O.2   128  LEU128     -0.2718
    109  CB       -93.5460   -5.9540  -83.6190 C.3   128  LEU128      0.0284
    110  CG       -93.5960   -4.6960  -82.7310 C.3   128  LEU128      0.0019
    111  CD1      -92.1740   -4.2700  -82.3910 C.3   128  LEU128      0.0001
    112  CD2      -94.2930   -3.5470  -83.4560 C.3   128  LEU128      0.0001
    113  N        -94.8020   -8.3130  -85.5840 N.am  129  GLY129     -0.1957
    114  CA       -94.5580   -9.3180  -86.5990 C.3   129  GLY129      0.1869
    115  C        -95.4650   -8.9990  -87.7760 C.2   129  GLY129      0.2309
    116  O        -95.0240   -8.9730  -88.9270 O.2   129  GLY129     -0.2863
    117  N        -94.2170   -6.4010  -90.0390 N.3   132  SER132     -0.1202
    118  CA       -92.9910   -6.6720  -90.7760 C.3   132  SER132      0.2020
    119  C        -93.0400   -8.0030  -91.5190 C.2   132  SER132      0.2619
    120  O        -93.4260   -8.0480  -92.6870 O.2   132  SER132     -0.2717
    121  CB       -91.7850   -6.6190  -89.8240 C.3   132  SER132      0.2103
    122  OG       -91.9690   -7.4480  -88.6930 O.3   132  SER132     -0.2182
    123  N        -92.6520   -9.0840  -90.8540 N.am  133  GLY133     -0.1956
    124  CA       -92.6830  -10.3770  -91.5120 C.3   133  GLY133      0.1869
    125  C        -94.0620  -10.7270  -92.0470 C.2   133  GLY133      0.2309
    126  O        -94.1870  -11.4580  -93.0310 O.2   133  GLY133     -0.2863
    127  N        -94.4850  -10.3000  -95.6030 N.3   136  VAL136     -0.1231
    128  CA       -93.9060  -11.3400  -96.4480 C.3   136  VAL136      0.1692
    129  C        -94.9160  -12.4940  -96.5270 C.2   136  VAL136      0.2591
    130  O        -95.1170  -13.0940  -97.5840 O.2   136  VAL136     -0.2718
    131  CB       -92.5770  -11.8710  -95.8560 C.3   136  VAL136      0.0266
    132  CG1      -92.0530  -13.0250  -96.7000 C.3   136  VAL136      0.0020
    133  CG2      -91.5470  -10.7480  -95.8020 C.3   136  VAL136      0.0020
    134  N        -95.5520  -12.7980  -95.3990 N.am  137  LEU137     -0.1980
    135  CA       -96.5480  -13.8630  -95.3520 C.3   137  LEU137      0.1596
    136  C        -97.6940  -13.5160  -96.2910 C.2   137  LEU137      0.2287
    137  O        -98.2290  -14.3790  -96.9840 O.2   137  LEU137     -0.2864
    138  CB       -97.0920  -14.0300  -93.9300 C.3   137  LEU137      0.0297
    139  CG       -96.0710  -14.4060  -92.8530 C.3   137  LEU137      0.0022
    140  CD1      -96.7940  -14.7660  -91.5640 C.3   137  LEU137      0.0001
    141  CD2      -95.2400  -15.5720  -93.3350 C.3   137  LEU137      0.0001
    142  N        -96.7420  -14.2620  -99.8190 N.3   140  ILE140     -0.1245
    143  CA       -96.7470  -15.7000 -100.0440 C.3   140  ILE140      0.1561
    144  C        -98.1800  -16.1730 -100.2630 C.2   140  ILE140      0.2260
    145  O        -98.4620  -16.9110 -101.2090 O.2   140  ILE140     -0.2867
    146  CB       -96.1290  -16.4500  -98.8440 C.3   140  ILE140      0.0252
    147  CG1      -94.6530  -16.0590  -98.6990 C.3   140  ILE140      0.0019
    148  CG2      -96.2600  -17.9540  -99.0400 C.3   140  ILE140      0.0019
    149  CD1      -93.9760  -16.6530  -97.4760 C.3   140  ILE140      0.0001
    150  N        -94.0430    0.7780  -87.0190 N.3   169  LYS169     -0.1245
    151  CA       -93.3290   -0.1430  -86.1400 C.3   169  LYS169      0.1561
    152  C        -92.2550    0.6030  -85.3520 C.2   169  LYS169      0.2260
    153  O        -92.0300    0.3300  -84.1720 O.2   169  LYS169     -0.2867
    154  CB       -92.6930   -1.2680  -86.9600 C.3   169  LYS169      0.0271
    155  CG       -91.8460   -2.2300  -86.1430 C.3   169  LYS169      0.0035
    156  CD       -91.2800   -3.3340  -87.0220 C.3   169  LYS169      0.0206
    157  CE       -90.3090   -4.2070  -86.2490 C.3   169  LYS169      0.1093
    158  NZ       -89.6650   -5.2250  -87.1330 N.3   169  LYS169     -0.1314
    159  N        -92.1380    0.9600  -81.3100 N.3   173  ARG173     -0.1245
    160  CA       -90.9330    0.6120  -80.5600 C.3   173  ARG173      0.1563
    161  C        -90.5530    1.7290  -79.5970 C.2   173  ARG173      0.2260
    162  O        -90.2300    1.4810  -78.4390 O.2   173  ARG173     -0.2867
    163  CB       -89.7620    0.3810  -81.5150 C.3   173  ARG173      0.0307
    164  CG       -89.6760   -1.0020  -82.1240 C.3   173  ARG173      0.0489
    165  CD       -88.6590   -0.9820  -83.2510 C.3   173  ARG173      0.2205
    166  NE       -88.1960   -2.3080  -83.6440 N.pl3 173  ARG173     -0.0865
    167  CZ       -87.4020   -2.5290  -84.6880 C.cat 173  ARG173      0.5346
    168  NH1      -86.9970   -1.5090  -85.4360 N.pl3 173  ARG173      0.1354
    169  NH2      -86.9950   -3.7580  -84.9760 N.pl3 173  ARG173      0.1354
    170  N        -94.4420  -16.6320  -78.1320 N.3   197  PHE197     -0.1241
    171  CA       -93.9240  -17.2690  -79.3380 C.3   197  PHE197      0.1605
    172  C        -94.2330  -18.7660  -79.3150 C.2   197  PHE197      0.2264
    173  O        -94.6660  -19.3370  -80.3170 O.2   197  PHE197     -0.2867
    174  CB       -92.4070  -17.0780  -79.4590 C.3   197  PHE197      0.0534
    175  CG       -92.0060  -15.9260  -80.3380 C.ar  197  PHE197     -0.0203
    176  CD1      -91.9430  -14.6330  -79.8300 C.ar  197  PHE197     -0.0042
    177  CD2      -91.7070  -16.1360  -81.6840 C.ar  197  PHE197     -0.0042
    178  CE1      -91.5900  -13.5620  -80.6500 C.ar  197  PHE197     -0.0003
    179  CE2      -91.3520  -15.0690  -82.5160 C.ar  197  PHE197     -0.0003
    180  CZ       -91.2950  -13.7780  -81.9960 C.ar  197  PHE197     -0.0000
    181  N        -97.6710  -19.6930  -80.1590 N.3   200  ASN200     -0.1240
    182  CA       -97.8850  -19.6130  -81.5960 C.3   200  ASN200      0.1653
    183  C        -97.3620  -20.8740  -82.2810 C.2   200  ASN200      0.2266
    184  O        -98.0120  -21.4200  -83.1720 O.2   200  ASN200     -0.2867
    185  CB       -97.1890  -18.3720  -82.1640 C.3   200  ASN200      0.1155
    186  CG       -98.0100  -17.1120  -81.9700 C.2   200  ASN200      0.2627
    187  OD1      -98.8990  -16.8110  -82.7690 O.2   200  ASN200     -0.2716
    188  ND2      -97.7310  -16.3780  -80.8930 N.am  200  ASN200     -0.0877
    189  N        -99.5050  -23.4630  -84.6370 N.3   204  PHE204     -0.1241
    190  CA       -99.1100  -23.8460  -85.9820 C.3   204  PHE204      0.1605
    191  C        -98.7810  -25.3230  -86.1390 C.2   204  PHE204      0.2264
    192  O        -99.0680  -25.9150  -87.1810 O.2   204  PHE204     -0.2867
    193  CB       -97.9400  -22.9790  -86.4480 C.3   204  PHE204      0.0534
    194  CG       -98.3090  -21.5340  -86.6490 C.ar  204  PHE204     -0.0203
    195  CD1      -99.3960  -21.1870  -87.4460 C.ar  204  PHE204     -0.0042
    196  CD2      -97.5790  -20.5220  -86.0350 C.ar  204  PHE204     -0.0042
    197  CE1      -99.7530  -19.8540  -87.6270 C.ar  204  PHE204     -0.0003
    198  CE2      -97.9260  -19.1850  -86.2100 C.ar  204  PHE204     -0.0003
    199  CZ       -99.0160  -18.8510  -87.0070 C.ar  204  PHE204     -0.0000
@<TRIPOS>BOND
     1   145   144    2
     2   144   143    1
     3   143   142    1
     4   143   146    1
     5    69    68    2
     6   148   146    1
     7   146   147    1
     8   147   149    1
     9    68    67    1
    10    58    57    2
    11   130   129    2
    12    67    70    1
    13    67    66    1
    14   137   136    2
    15    57    66   am
    16    57    56    1
    17   132   131    1
    18   129   128    1
    19   129   134   am
    20    70    71    1
    21   128   131    1
    22   128   127    1
    23   136   135    1
    24    56    55    1
    25    56    59    1
    26   131   133    1
    27    65    63   ar
    28    65    64   ar
    29    63    61   ar
    30    64    62   ar
    31   134   135    1
    32    61    60   ar
    33   135   138    1
    34    71    72    1
    35    62    60   ar
    36    60    59    1
    37    73    72    2
    38    72    74   am
    39   138   139    1
    40    50    49    2
    41   141   139    1
    42   126   125    2
    43   139   140    1
    44    49    48    1
    45   120   119    2
    46   125   124    1
    47    48    47    1
    48    48    51    1
    49   119   123   am
    50   119   118    1
    51   124   123    1
    52    41    40    2
    53   118   117    1
    54   118   121    1
    55    53    52    1
    56    53    54    1
    57    45    44   ar
    58    51    52    1
    59   121   122    1
    60    40    39    1
    61    44    43    1
    62    44    46   ar
    63    42    43    1
    64    42    39    1
    65   116   115    2
    66    39    38    1
    67   115   114    1
    68   197   195   ar
    69   197   199   ar
    70    31    32   ar
    71    31    29   ar
    72   195   194   ar
    73    38    35   am
    74    36    35    2
    75   192   191    2
    76   158   157    1
    77   156   157    1
    78   156   155    1
    79   150   151    1
    80   199   198   ar
    81   154   155    1
    82   154   151    1
    83    32    30   ar
    84    35    34    1
    85   108   107    2
    86   194   193    1
    87   194   196   ar
    88    29    28   ar
    89   114   113    1
    90   193   190    1
    91   104   102    1
    92   198   196   ar
    93   151   152    1
    94   191   190    1
    95   190   189    1
    96    26    25    2
    97   107   113   am
    98   107   106    1
    99    30    28   ar
   100   168   167    1
   101    28    27    1
   102   152   153    2
   103    34    33    1
   104    34    37    1
   105   102   103    1
   106   102   101    2
   107   169   167    1
   108    25    24    1
   109    97    96    2
   110   167   166    2
   111   106   105    1
   112   106   109    1
   113    27    24    1
   114   101   100    1
   115    24    23    1
   116   166   165    1
   117   109   110    1
   118    96    95    1
   119   112   110    1
   120   165   164    1
   121    13    14    1
   122    13    12    1
   123   184   183    2
   124   187   186    2
   125   110   111    1
   126    90    89    2
   127   100    99    1
   128    14    15    1
   129    95    98    1
   130    95    94    1
   131   179   180   ar
   132   179   177   ar
   133   183   182    1
   134    12    11    1
   135   185   186    1
   136   185   182    1
   137    98    99    1
   138   164   163    1
   139   180   178   ar
   140   186   188   am
   141   177   175   ar
   142    89    94   am
   143    89    88    1
   144   182   181    1
   145   163   160    1
   146    78    77    2
   147   159   160    1
   148    19    18    2
   149    86    85    1
   150    11     8    1
   151   178   176   ar
   152   160   161    1
   153    83    85   ar
   154    83    81   ar
   155    88    87    1
   156    88    91    1
   157    18    17    1
   158    10     9    2
   159   175   176   ar
   160   175   174    1
   161   173   172    2
   162    85    84   ar
   163    77    87   am
   164    77    76    1
   165    93    91    1
   166     8     9    1
   167     8     7    1
   168    21    20    1
   169    81    80   ar
   170   161   162    2
   171    84    82   ar
   172    91    92    1
   173   174   171    1
   174    76    75    1
   175    76    79    1
   176   171   172    1
   177   171   170    1
   178    20    17    1
   179    20    22    1
   180    17    16    1
   181    80    82   ar
   182    80    79    1
   183     4     3    2
   184     5     6    1
   185     5     2    1
   186     3     2    1
   187     2     1    1
