@<TRIPOS>MOLECULE
tmp/1ixeA01.pdb
 141 136 0 0 0
SMALL
GASTEIGER

@<TRIPOS>ATOM
      1  N          4.5730  -18.1020  -10.4080 N.3    18  ILE18      -0.1245
      2  CA         4.1660  -17.6760  -11.7280 C.3    18  ILE18       0.1561
      3  C          3.8540  -18.9130  -12.5500 C.2    18  ILE18       0.2260
      4  O          4.7480  -19.6740  -12.9070 O.2    18  ILE18      -0.2867
      5  CB         5.2860  -16.8850  -12.4310 C.3    18  ILE18       0.0252
      6  CG1        5.6830  -15.6750  -11.5800 C.3    18  ILE18       0.0019
      7  CG2        4.8160  -16.4540  -13.8090 C.3    18  ILE18       0.0019
      8  CD1        6.8690  -14.8910  -12.1300 C.3    18  ILE18       0.0001
      9  N          6.9780  -10.0870   -8.7700 N.3   182  HIS182     -0.1241
     10  CA         6.8940  -11.0350   -9.8750 C.3   182  HIS182      0.1621
     11  C          8.1190  -11.9410  -10.0210 C.2   182  HIS182      0.2264
     12  O          8.7680  -11.9790  -11.0670 O.2   182  HIS182     -0.2867
     13  CB         6.6210  -10.2830  -11.1810 C.3   182  HIS182      0.0745
     14  CG         5.8430  -11.0820  -12.1780 C.ar  182  HIS182      0.0817
     15  ND1        6.4140  -11.6290  -13.3060 N.ar  182  HIS182     -0.2268
     16  CD2        4.5400  -11.4490  -12.2000 C.ar  182  HIS182      0.1154
     17  CE1        5.4980  -12.2980  -13.9810 C.ar  182  HIS182      0.1986
     18  NE2        4.3520  -12.2050  -13.3320 N.ar  182  HIS182     -0.2212
     19  N         12.4600  -11.7380  -11.8060 N.3   185  ASN185     -0.1225
     20  CA        12.6590  -10.8640  -12.9430 C.3   185  ASN185      0.1785
     21  C         13.9960  -10.1380  -12.7720 C.2   185  ASN185      0.2597
     22  O         14.6150  -10.2070  -11.7130 O.2   185  ASN185     -0.2718
     23  CB        11.5100   -9.8590  -13.0010 C.3   185  ASN185      0.1169
     24  CG        11.3730   -9.0710  -11.7200 C.2   185  ASN185      0.2627
     25  OD1       12.1290   -8.1320  -11.4720 O.2   185  ASN185     -0.2716
     26  ND2       10.4160   -9.4610  -10.8830 N.am  185  ASN185     -0.0877
     27  N         14.4180   -9.4350  -13.8160 N.am  186  ALA186     -0.1979
     28  CA        15.7360   -8.8280  -13.8750 C.3   186  ALA186      0.1597
     29  C         16.0600   -7.9370  -12.6780 C.2   186  ALA186      0.2287
     30  O         17.1600   -8.0080  -12.1200 O.2   186  ALA186     -0.2864
     31  CB        15.8700   -8.0290  -15.1660 C.3   186  ALA186      0.0319
     32  N         14.2790   -3.1450  -21.4540 N.3   216  ARG216     -0.1231
     33  CA        13.8940   -4.5420  -21.5870 C.3   216  ARG216      0.1694
     34  C         13.1910   -5.0450  -20.3370 C.2   216  ARG216      0.2592
     35  O         12.6800   -6.1660  -20.2930 O.2   216  ARG216     -0.2718
     36  CB        15.1270   -5.3930  -21.8920 C.3   216  ARG216      0.0321
     37  CG        15.1650   -5.8450  -23.3280 C.3   216  ARG216      0.0489
     38  CD        16.5440   -5.7830  -23.9400 C.3   216  ARG216      0.2205
     39  NE        17.5130   -6.6500  -23.2850 N.pl3 216  ARG216     -0.0865
     40  CZ        18.6010   -7.1240  -23.8880 C.cat 216  ARG216      0.5346
     41  NH1       18.8010   -6.8870  -25.1800 N.pl3 216  ARG216      0.1354
     42  NH2       19.4960   -7.8180  -23.2010 N.pl3 216  ARG216      0.1354
     43  N         13.1450   -4.1980  -19.3220 N.am  217  HIS217     -0.1962
     44  CA        12.4980   -4.5690  -18.0840 C.3   217  HIS217      0.1787
     45  C         11.6770   -3.4150  -17.5230 C.2   217  HIS217      0.2621
     46  O         12.2140   -2.3620  -17.1830 O.2   217  HIS217     -0.2715
     47  CB        13.5580   -5.0170  -17.0820 C.3   217  HIS217      0.0785
     48  CG        13.0000   -5.3910  -15.7510 C.ar  217  HIS217      0.0821
     49  ND1       11.8230   -6.0910  -15.6140 N.ar  217  HIS217     -0.2267
     50  CD2       13.4650   -5.1870  -14.4970 C.ar  217  HIS217      0.1154
     51  CE1       11.5850   -6.3030  -14.3330 C.ar  217  HIS217      0.1986
     52  NE2       12.5670   -5.7650  -13.6330 N.ar  217  HIS217     -0.2212
     53  N         10.3680   -3.6220  -17.4380 N.am  218  GLY218     -0.1940
     54  CA         9.4850   -2.6050  -16.9000 C.3   218  GLY218      0.2014
     55  C          9.2250   -1.4700  -17.8710 C.2   218  GLY218      0.2639
     56  O          8.5220   -0.5140  -17.5390 O.2   218  GLY218     -0.2714
     57  N          9.7810   -1.5770  -19.0750 N.am  219  GLY219     -0.1939
     58  CA         9.6920   -0.4880  -20.0320 C.3   219  GLY219      0.2014
     59  C          8.4590   -0.4980  -20.9170 C.2   219  GLY219      0.2638
     60  O          7.7430    0.5000  -20.9900 O.2   219  GLY219     -0.2714
     61  N          8.2250   -1.6250  -21.5870 N.am  220  ALA220     -0.1977
     62  CA         7.1430   -1.7940  -22.5560 C.3   220  ALA220      0.1597
     63  C          5.9700   -0.8350  -22.3770 C.2   220  ALA220      0.2287
     64  O          5.4520   -0.2960  -23.3480 O.2   220  ALA220     -0.2864
     65  CB         6.6470   -3.2280  -22.5150 C.3   220  ALA220      0.0319
     66  N          6.0100  -12.7140  -23.1540 N.3   256  HIS256     -0.1226
     67  CA         6.5920  -12.6920  -21.8270 C.3   256  HIS256      0.1752
     68  C          7.5820  -13.8430  -21.6940 C.2   256  HIS256      0.2596
     69  O          7.4000  -14.8970  -22.3020 O.2   256  HIS256     -0.2718
     70  CB         5.4800  -12.8150  -20.7850 C.3   256  HIS256      0.0759
     71  CG         5.8990  -12.4080  -19.4110 C.ar  256  HIS256      0.0818
     72  ND1        6.6520  -13.2200  -18.5900 N.ar  256  HIS256     -0.2268
     73  CD2        5.7090  -11.2550  -18.7300 C.ar  256  HIS256      0.1154
     74  CE1        6.9070  -12.5830  -17.4620 C.ar  256  HIS256      0.1986
     75  NE2        6.3470  -11.3880  -17.5220 N.ar  256  HIS256     -0.2212
     76  N          8.6350  -13.6390  -20.9100 N.am  257  ARG257     -0.1966
     77  CA         9.6320  -14.6780  -20.7150 C.3   257  ARG257      0.1729
     78  C          9.0290  -15.9200  -20.0670 C.2   257  ARG257      0.2616
     79  O          9.4010  -17.0460  -20.3970 O.2   257  ARG257     -0.2715
     80  CB        10.7810  -14.1590  -19.8530 C.3   257  ARG257      0.0348
     81  CG        11.7800  -13.2770  -20.5910 C.3   257  ARG257      0.0492
     82  CD        12.4890  -14.0350  -21.7040 C.3   257  ARG257      0.2205
     83  NE        13.9450  -13.9170  -21.6230 N.pl3 257  ARG257     -0.0865
     84  CZ        14.7110  -14.5760  -20.7550 C.cat 257  ARG257      0.5346
     85  NH1       14.1650  -15.4080  -19.8780 N.pl3 257  ARG257      0.1354
     86  NH2       16.0280  -14.4090  -20.7720 N.pl3 257  ARG257      0.1354
     87  N          8.0960  -15.7200  -19.1440 N.am  258  VAL258     -0.1977
     88  CA         7.5160  -16.8490  -18.4320 C.3   258  VAL258      0.1596
     89  C          6.0790  -17.1080  -18.8710 C.2   258  VAL258      0.2287
     90  O          5.6950  -18.2520  -19.0750 O.2   258  VAL258     -0.2864
     91  CB         7.5600  -16.6310  -16.9000 C.3   258  VAL258      0.0276
     92  CG1        8.9410  -16.1210  -16.4950 C.3   258  VAL258      0.0022
     93  CG2        6.4900  -15.6500  -16.4740 C.3   258  VAL258      0.0022
     94  N         -2.0640  -10.3540  -14.6990 N.3   265  ARG265     -0.1245
     95  CA        -2.0610   -8.9460  -14.2940 C.3   265  ARG265      0.1563
     96  C         -2.6460   -8.0830  -15.4070 C.2   265  ARG265      0.2260
     97  O         -3.3180   -7.0810  -15.1520 O.2   265  ARG265     -0.2867
     98  CB        -0.6370   -8.4910  -13.9740 C.3   265  ARG265      0.0307
     99  CG         0.0160   -9.2600  -12.8320 C.3   265  ARG265      0.0489
    100  CD         1.5110   -8.9910  -12.7720 C.3   265  ARG265      0.2205
    101  NE         2.1560   -9.3460  -14.0310 N.pl3 265  ARG265     -0.0865
    102  CZ         3.4390   -9.1320  -14.3050 C.cat 265  ARG265      0.5346
    103  NH1        4.2280   -8.5650  -13.4020 N.pl3 265  ARG265      0.1354
    104  NH2        3.9320   -9.4820  -15.4860 N.pl3 265  ARG265      0.1354
    105  N          1.4090   -7.4360  -18.6270 N.3   306  VAL306     -0.1231
    106  CA         0.9900   -6.3560  -17.7420 C.3   306  VAL306      0.1692
    107  C          1.1880   -4.9790  -18.3770 C.2   306  VAL306      0.2592
    108  O          0.4780   -4.0300  -18.0510 O.2   306  VAL306     -0.2718
    109  CB         1.7690   -6.4190  -16.4080 C.3   306  VAL306      0.0266
    110  CG1        3.2600   -6.2680  -16.6690 C.3   306  VAL306      0.0020
    111  CG2        1.2690   -5.3510  -15.4570 C.3   306  VAL306      0.0020
    112  N          2.1450   -4.8760  -19.2940 N.am  307  ASP307     -0.1974
    113  CA         2.5020   -3.5880  -19.8890 C.3   307  ASP307      0.1709
    114  C          1.5370   -3.1340  -20.9760 C.2   307  ASP307      0.2293
    115  O          1.5760   -1.9790  -21.4070 O.2   307  ASP307     -0.2864
    116  CB         3.9170   -3.6480  -20.4640 C.3   307  ASP307      0.1436
    117  CG         4.9870   -3.6390  -19.3860 C.2   307  ASP307      0.3671
    118  OD1        6.0080   -4.3410  -19.5560 O.co2 307  ASP307     -0.2456
    119  OD2        4.8170   -2.9190  -18.3760 O.co2 307  ASP307     -0.2456
    120  N          6.4180    1.8040  -11.5670 N.3   328  PHE328     -0.1241
    121  CA         6.6880    0.3760  -11.4480 C.3   328  PHE328      0.1605
    122  C          7.5640    0.1440  -10.2120 C.2   328  PHE328      0.2264
    123  O          7.3040   -0.7540   -9.4100 O.2   328  PHE328     -0.2867
    124  CB         7.4100   -0.1030  -12.7100 C.3   328  PHE328      0.0534
    125  CG         7.4650   -1.5970  -12.8630 C.ar  328  PHE328     -0.0203
    126  CD1        8.0840   -2.3930  -11.9070 C.ar  328  PHE328     -0.0042
    127  CD2        6.9350   -2.2050  -13.9950 C.ar  328  PHE328     -0.0042
    128  CE1        8.1760   -3.7720  -12.0790 C.ar  328  PHE328     -0.0003
    129  CE2        7.0230   -3.5830  -14.1750 C.ar  328  PHE328     -0.0003
    130  CZ         7.6450   -4.3670  -13.2140 C.ar  328  PHE328     -0.0000
    131  N          7.2530   -2.2440   -6.9640 N.3   332  ARG332     -0.1245
    132  CA         8.1200   -3.4130   -6.9390 C.3   332  ARG332      0.1563
    133  C          9.0720   -3.3840   -5.7510 C.2   332  ARG332      0.2260
    134  O          9.5880   -4.4220   -5.3360 O.2   332  ARG332     -0.2867
    135  CB         8.9100   -3.5180   -8.2520 C.3   332  ARG332      0.0307
    136  CG         9.7650   -4.7710   -8.3800 C.3   332  ARG332      0.0489
    137  CD         8.9780   -6.0410   -8.0910 C.3   332  ARG332      0.2205
    138  NE         7.8680   -6.2430   -9.0190 N.pl3 332  ARG332     -0.0865
    139  CZ         8.0000   -6.6420  -10.2800 C.cat 332  ARG332      0.5346
    140  NH1        9.2020   -6.8800  -10.7890 N.pl3 332  ARG332      0.1354
    141  NH2        6.9220   -6.8170  -11.0330 N.pl3 332  ARG332      0.1354
@<TRIPOS>BOND
     1    41    40    1
     2    38    37    1
     3    38    39    1
     4    40    39    2
     5    40    42    1
     6    64    63    2
     7    37    36    1
     8    66    67    1
     9    62    65    1
    10    62    63    1
    11    62    61    1
    12    69    68    2
    13    36    33    1
    14    67    68    1
    15    67    70    1
    16    82    83    1
    17    82    81    1
    18    68    76   am
    19    83    84    2
    20    61    59   am
    21    33    32    1
    22    33    34    1
    23   115   114    2
    24    60    59    2
    25   114   113    1
    26    59    58    1
    27    76    77    1
    28    70    71    1
    29    86    84    1
    30    84    85    1
    31    77    78    1
    32    77    80    1
    33    81    80    1
    34   116   113    1
    35   116   117    1
    36    79    78    2
    37    34    35    2
    38    34    43   am
    39    78    87   am
    40    58    57    1
    41   113   112    1
    42   118   117   ar
    43    71    73   ar
    44    71    72   ar
    45   117   119   ar
    46    43    44    1
    47   112   107   am
    48    87    88    1
    49    57    55   am
    50    90    89    2
    51    89    88    1
    52    73    75   ar
    53   105   106    1
    54    72    74   ar
    55    88    91    1
    56   107   108    2
    57   107   106    1
    58    44    45    1
    59    44    47    1
    60    55    56    2
    61    55    54    1
    62   106   109    1
    63    45    53   am
    64    45    46    2
    65    75    74   ar
    66    53    54    1
    67    47    48    1
    68    91    92    1
    69    91    93    1
    70   110   109    1
    71   109   111    1
    72    48    49   ar
    73    48    50   ar
    74    49    51   ar
    75   104   102    1
    76    96    97    2
    77    96    95    1
    78    31    28    1
    79    94    95    1
    80    50    52   ar
    81    51    52   ar
    82   102   101    2
    83   102   103    1
    84    95    98    1
    85   129   127   ar
    86   129   130   ar
    87   101   100    1
    88   127   125   ar
    89    17    18   ar
    90    17    15   ar
    91    98    99    1
    92    28    27    1
    93    28    29    1
    94    27    21   am
    95     7     5    1
    96    18    16   ar
    97    15    14   ar
    98   130   128   ar
    99    23    20    1
   100    23    24    1
   101    20    21    1
   102    20    19    1
   103     4     3    2
   104   125   124    1
   105   125   126   ar
   106    99   100    1
   107    21    22    2
   108   124   121    1
   109    29    30    2
   110     3     2    1
   111     5     2    1
   112     5     6    1
   113    16    14   ar
   114    14    13    1
   115     8     6    1
   116   128   126   ar
   117     2     1    1
   118    24    25    2
   119    24    26   am
   120   120   121    1
   121   121   122    1
   122    13    10    1
   123    12    11    2
   124   141   139    1
   125   140   139    1
   126   139   138    2
   127   122   123    2
   128    11    10    1
   129    10     9    1
   130   138   137    1
   131   136   135    1
   132   136   137    1
   133   135   132    1
   134   131   132    1
   135   132   133    1
   136   133   134    2
