@<TRIPOS>MOLECULE
tmp/1ixeA00.pdb
 193 186 0 0 0
SMALL
GASTEIGER

@<TRIPOS>ATOM
      1  N         17.9720  -18.7400  -18.7430 N.3     6  GLU6       -0.1245
      2  CA        16.6300  -19.2630  -18.9630 C.3     6  GLU6        0.1567
      3  C         16.5070  -20.6820  -18.4400 C.2     6  GLU6        0.2260
      4  O         17.3350  -21.5410  -18.7470 O.2     6  GLU6       -0.2867
      5  CB        16.2570  -19.2410  -20.4450 C.3     6  GLU6        0.0388
      6  CG        14.7930  -19.5990  -20.6730 C.3     6  GLU6        0.1160
      7  CD        14.3620  -19.4550  -22.1170 C.2     6  GLU6        0.3649
      8  OE1       13.1520  -19.6170  -22.3870 O.co2   6  GLU6       -0.2457
      9  OE2       15.2270  -19.1850  -22.9780 O.co2   6  GLU6       -0.2457
     10  N         15.1550   -0.6660  -20.6660 N.3   215  PRO215     -0.2102
     11  CA        13.9090   -0.7420  -21.4320 C.3   215  PRO215      0.1504
     12  C         13.3880   -2.1730  -21.5850 C.2   215  PRO215      0.2575
     13  O         12.2020   -2.3940  -21.8060 O.2   215  PRO215     -0.2718
     14  CB        14.2920   -0.1080  -22.7670 C.3   215  PRO215      0.0282
     15  CG        15.7310   -0.4880  -22.9060 C.3   215  PRO215      0.0208
     16  CD        16.2750   -0.2380  -21.5220 C.3   215  PRO215      0.0893
     17  N         14.2790   -3.1450  -21.4540 N.am  216  ARG216     -0.1980
     18  CA        13.8940   -4.5420  -21.5870 C.3   216  ARG216      0.1597
     19  C         13.1910   -5.0450  -20.3370 C.2   216  ARG216      0.2287
     20  O         12.6800   -6.1660  -20.2930 O.2   216  ARG216     -0.2864
     21  CB        15.1270   -5.3930  -21.8920 C.3   216  ARG216      0.0334
     22  CG        15.1650   -5.8450  -23.3280 C.3   216  ARG216      0.0492
     23  CD        16.5440   -5.7830  -23.9400 C.3   216  ARG216      0.2205
     24  NE        17.5130   -6.6500  -23.2850 N.pl3 216  ARG216     -0.0865
     25  CZ        18.6010   -7.1240  -23.8880 C.cat 216  ARG216      0.5346
     26  NH1       18.8010   -6.8870  -25.1800 N.pl3 216  ARG216      0.1354
     27  NH2       19.4960   -7.8180  -23.2010 N.pl3 216  ARG216      0.1354
     28  N         10.3680   -3.6220  -17.4380 N.3   218  GLY218     -0.1210
     29  CA         9.4850   -2.6050  -16.9000 C.3   218  GLY218      0.1956
     30  C          9.2250   -1.4700  -17.8710 C.2   218  GLY218      0.2612
     31  O          8.5220   -0.5140  -17.5390 O.2   218  GLY218     -0.2717
     32  N          9.7810   -1.5770  -19.0750 N.am  219  GLY219     -0.1942
     33  CA         9.6920   -0.4880  -20.0320 C.3   219  GLY219      0.2014
     34  C          8.4590   -0.4980  -20.9170 C.2   219  GLY219      0.2638
     35  O          7.7430    0.5000  -20.9900 O.2   219  GLY219     -0.2714
     36  N          8.2250   -1.6250  -21.5870 N.am  220  ALA220     -0.1977
     37  CA         7.1430   -1.7940  -22.5560 C.3   220  ALA220      0.1597
     38  C          5.9700   -0.8350  -22.3770 C.2   220  ALA220      0.2287
     39  O          5.4520   -0.2960  -23.3480 O.2   220  ALA220     -0.2864
     40  CB         6.6470   -3.2280  -22.5150 C.3   220  ALA220      0.0319
     41  N          3.3610   -6.9180  -38.0960 N.3   245  LEU245     -0.1245
     42  CA         3.7970   -8.3090  -38.0490 C.3   245  LEU245      0.1561
     43  C          4.4740   -8.7200  -39.3570 C.2   245  LEU245      0.2260
     44  O          5.4190   -9.5090  -39.3530 O.2   245  LEU245     -0.2867
     45  CB         2.6040   -9.2280  -37.7510 C.3   245  LEU245      0.0270
     46  CG         2.0010   -9.0920  -36.3420 C.3   245  LEU245      0.0019
     47  CD1        0.7340   -9.9300  -36.2300 C.3   245  LEU245      0.0001
     48  CD2        3.0290   -9.5220  -35.3020 C.3   245  LEU245      0.0001
     49  N          7.7740   -8.1300  -39.5330 N.3   248  LYS248     -0.1231
     50  CA         8.4100   -9.0110  -38.5690 C.3   248  LYS248      0.1693
     51  C          8.9520   -8.1940  -37.3950 C.2   248  LYS248      0.2592
     52  O          9.9940   -8.5120  -36.8260 O.2   248  LYS248     -0.2718
     53  CB         9.5430   -9.7890  -39.2430 C.3   248  LYS248      0.0285
     54  CG         9.4240  -11.2990  -39.0890 C.3   248  LYS248      0.0035
     55  CD         9.5200  -11.7210  -37.6210 C.3   248  LYS248      0.0206
     56  CE         9.3380  -13.2250  -37.4570 C.3   248  LYS248      0.1093
     57  NZ        10.3500  -14.0070  -38.2280 N.3   248  LYS248     -0.1314
     58  N          8.2400   -7.1280  -37.0450 N.am  249  GLU249     -0.1966
     59  CA         8.5900   -6.3370  -35.8740 C.3   249  GLU249      0.1733
     60  C          7.6540   -6.7180  -34.7360 C.2   249  GLU249      0.2616
     61  O          6.5240   -7.1540  -34.9640 O.2   249  GLU249     -0.2715
     62  CB         8.4690   -4.8450  -36.1810 C.3   249  GLU249      0.0429
     63  CG         9.4590   -4.3450  -37.2240 C.3   249  GLU249      0.1163
     64  CD         9.1870   -2.9120  -37.6500 C.2   249  GLU249      0.3649
     65  OE1        9.9500   -2.3790  -38.4840 O.co2 249  GLU249     -0.2457
     66  OE2        8.2030   -2.3180  -37.1550 O.co2 249  GLU249     -0.2457
     67  N          8.1260   -6.5600  -33.5100 N.am  250  ARG250     -0.1963
     68  CA         7.3630   -7.0120  -32.3570 C.3   250  ARG250      0.1729
     69  C          6.2030   -6.0950  -31.9730 C.2   250  ARG250      0.2616
     70  O          6.2430   -4.8900  -32.1980 O.2   250  ARG250     -0.2715
     71  CB         8.3080   -7.2030  -31.1740 C.3   250  ARG250      0.0348
     72  CG         9.1270   -8.4710  -31.2740 C.3   250  ARG250      0.0492
     73  CD        10.1850   -8.5440  -30.1910 C.3   250  ARG250      0.2205
     74  NE        11.3570   -7.7470  -30.5250 N.pl3 250  ARG250     -0.0865
     75  CZ        12.4760   -7.7310  -29.8080 C.cat 250  ARG250      0.5346
     76  NH1       13.5250   -7.0360  -30.2310 N.pl3 250  ARG250      0.1354
     77  NH2       12.5470   -8.4050  -28.6640 N.pl3 250  ARG250      0.1354
     78  N          5.1600   -6.6840  -31.4020 N.am  251  ILE251     -0.1963
     79  CA         4.0440   -5.9040  -30.8910 C.3   251  ILE251      0.1727
     80  C          4.1790   -5.7020  -29.3840 C.2   251  ILE251      0.2616
     81  O          4.0830   -6.6450  -28.6030 O.2   251  ILE251     -0.2715
     82  CB         2.7000   -6.5860  -31.2080 C.3   251  ILE251      0.0290
     83  CG1        2.4970   -6.6140  -32.7250 C.3   251  ILE251      0.0022
     84  CG2        1.5600   -5.8450  -30.5180 C.3   251  ILE251      0.0023
     85  CD1        1.2400   -7.2820  -33.1540 C.3   251  ILE251      0.0001
     86  N          4.4040   -4.4540  -28.9940 N.am  252  MET252     -0.1963
     87  CA         4.6260   -4.0840  -27.6050 C.3   252  MET252      0.1736
     88  C          3.4550   -4.4750  -26.7050 C.2   252  MET252      0.2617
     89  O          2.2840   -4.3360  -27.0780 O.2   252  MET252     -0.2715
     90  CB         4.8590   -2.5770  -27.5250 C.3   252  MET252      0.0427
     91  CG         5.9770   -2.0890  -28.4330 C.3   252  MET252      0.0599
     92  SD         7.5930   -2.6970  -27.9040 S.3   252  MET252     -0.1393
     93  CE         7.7810   -4.1570  -28.8880 C.3   252  MET252      0.0692
     94  N          3.7770   -4.9630  -25.5150 N.am  253  GLY253     -0.1940
     95  CA         2.7410   -5.2660  -24.5460 C.3   253  GLY253      0.2014
     96  C          2.2400   -6.6860  -24.6790 C.2   253  GLY253      0.2639
     97  O          1.2890   -7.0880  -24.0080 O.2   253  GLY253     -0.2714
     98  N          2.8820   -7.4480  -25.5550 N.am  254  MET254     -0.1963
     99  CA         2.5530   -8.8560  -25.7080 C.3   254  MET254      0.1736
    100  C          3.8150   -9.7030  -25.6570 C.2   254  MET254      0.2617
    101  O          4.8930   -9.2630  -26.0690 O.2   254  MET254     -0.2715
    102  CB         1.8340   -9.0980  -27.0340 C.3   254  MET254      0.0427
    103  CG         0.5330   -8.3520  -27.1840 C.3   254  MET254      0.0599
    104  SD        -0.2670   -8.8070  -28.7110 S.3   254  MET254     -0.1393
    105  CE        -1.0480  -10.3380  -28.2270 C.3   254  MET254      0.0692
    106  N          3.6660  -10.9220  -25.1540 N.am  255  GLY255     -0.1940
    107  CA         4.8000  -11.8040  -25.0220 C.3   255  GLY255      0.2014
    108  C          5.4230  -11.6400  -23.6610 C.2   255  GLY255      0.2639
    109  O          5.3730  -10.5610  -23.0730 O.2   255  GLY255     -0.2714
    110  N          6.0100  -12.7140  -23.1540 N.am  256  HIS256     -0.1959
    111  CA         6.5920  -12.6920  -21.8270 C.3   256  HIS256      0.1787
    112  C          7.5820  -13.8430  -21.6940 C.2   256  HIS256      0.2620
    113  O          7.4000  -14.8970  -22.3020 O.2   256  HIS256     -0.2715
    114  CB         5.4800  -12.8150  -20.7850 C.3   256  HIS256      0.0785
    115  CG         5.8990  -12.4080  -19.4110 C.ar  256  HIS256      0.0821
    116  ND1        6.6520  -13.2200  -18.5900 N.ar  256  HIS256     -0.2267
    117  CD2        5.7090  -11.2550  -18.7300 C.ar  256  HIS256      0.1154
    118  CE1        6.9070  -12.5830  -17.4620 C.ar  256  HIS256      0.1986
    119  NE2        6.3470  -11.3880  -17.5220 N.ar  256  HIS256     -0.2212
    120  N          8.6350  -13.6390  -20.9100 N.am  257  ARG257     -0.1977
    121  CA         9.6320  -14.6780  -20.7150 C.3   257  ARG257      0.1597
    122  C          9.0290  -15.9200  -20.0670 C.2   257  ARG257      0.2287
    123  O          9.4010  -17.0460  -20.3970 O.2   257  ARG257     -0.2864
    124  CB        10.7810  -14.1590  -19.8530 C.3   257  ARG257      0.0334
    125  CG        11.7800  -13.2770  -20.5910 C.3   257  ARG257      0.0492
    126  CD        12.4890  -14.0350  -21.7040 C.3   257  ARG257      0.2205
    127  NE        13.9450  -13.9170  -21.6230 N.pl3 257  ARG257     -0.0865
    128  CZ        14.7110  -14.5760  -20.7550 C.cat 257  ARG257      0.5346
    129  NH1       14.1650  -15.4080  -19.8780 N.pl3 257  ARG257      0.1354
    130  NH2       16.0280  -14.4090  -20.7720 N.pl3 257  ARG257      0.1354
    131  N          3.2690  -17.7980  -21.1370 N.3   260  LYS260     -0.1245
    132  CA         2.9490  -18.2260  -22.4950 C.3   260  LYS260      0.1561
    133  C          1.4370  -18.2940  -22.6110 C.2   260  LYS260      0.2260
    134  O          0.8820  -19.0760  -23.3700 O.2   260  LYS260     -0.2867
    135  CB         3.5860  -19.5870  -22.7890 C.3   260  LYS260      0.0271
    136  CG         5.0240  -19.4820  -23.2710 C.3   260  LYS260      0.0035
    137  CD         5.9150  -18.7910  -22.2600 C.3   260  LYS260      0.0206
    138  CE         7.2840  -18.5070  -22.8430 C.3   260  LYS260      0.1093
    139  NZ         7.2170  -17.6170  -24.0320 N.3   260  LYS260     -0.1314
    140  N         -0.5560  -14.3640  -32.6300 N.3   297  LEU297     -0.1245
    141  CA         0.4730  -14.5330  -31.6170 C.3   297  LEU297      0.1561
    142  C          0.0750  -15.5040  -30.5100 C.2   297  LEU297      0.2260
    143  O          0.9190  -16.2390  -30.0060 O.2   297  LEU297     -0.2867
    144  CB         0.8450  -13.1670  -31.0250 C.3   297  LEU297      0.0270
    145  CG         1.4120  -12.1910  -32.0620 C.3   297  LEU297      0.0019
    146  CD1        1.6480  -10.8200  -31.4400 C.3   297  LEU297      0.0001
    147  CD2        2.7050  -12.7720  -32.6260 C.3   297  LEU297      0.0001
    148  N          1.2090  -18.9500  -30.7160 N.3   300  ARG300     -0.1231
    149  CA         2.6440  -19.0560  -30.4680 C.3   300  ARG300      0.1694
    150  C          2.9410  -18.8230  -28.9860 C.2   300  ARG300      0.2593
    151  O          4.0930  -18.7030  -28.5750 O.2   300  ARG300     -0.2718
    152  CB         3.4130  -18.0480  -31.3300 C.3   300  ARG300      0.0321
    153  CG         3.2360  -18.2670  -32.8300 C.3   300  ARG300      0.0489
    154  CD         4.0830  -17.3090  -33.6670 C.3   300  ARG300      0.2205
    155  NE         5.5220  -17.5140  -33.4880 N.pl3 300  ARG300     -0.0865
    156  CZ         6.1550  -18.6630  -33.7150 C.cat 300  ARG300      0.5346
    157  NH1        7.4690  -18.7430  -33.5490 N.pl3 300  ARG300      0.1354
    158  NH2        5.4780  -19.7370  -34.1040 N.pl3 300  ARG300      0.1354
    159  N          1.8850  -18.7660  -28.1870 N.am  301  GLY301     -0.1942
    160  CA         2.0630  -18.6440  -26.7560 C.3   301  GLY301      0.2014
    161  C          2.3490  -17.2280  -26.3110 C.2   301  GLY301      0.2638
    162  O          2.7950  -17.0090  -25.1870 O.2   301  GLY301     -0.2714
    163  N          2.0980  -16.2580  -27.1810 N.am  302  ILE302     -0.1977
    164  CA         2.3030  -14.8720  -26.8020 C.3   302  ILE302      0.1596
    165  C          0.9990  -14.0890  -26.6850 C.2   302  ILE302      0.2287
    166  O          0.2110  -13.9990  -27.6280 O.2   302  ILE302     -0.2864
    167  CB         3.2570  -14.1610  -27.7780 C.3   302  ILE302      0.0276
    168  CG1        2.8150  -12.7110  -27.9500 C.3   302  ILE302      0.0022
    169  CG2        3.3240  -14.9050  -29.0890 C.3   302  ILE302      0.0022
    170  CD1        3.6060  -11.9650  -28.9320 C.3   302  ILE302      0.0001
    171  N          0.7810   -8.7300  -21.9800 N.3   305  ASN305     -0.1225
    172  CA         1.3790   -8.7740  -20.6560 C.3   305  ASN305      0.1785
    173  C          0.9530   -7.5350  -19.8690 C.2   305  ASN305      0.2597
    174  O          0.2260   -6.6890  -20.3790 O.2   305  ASN305     -0.2718
    175  CB         2.9070   -8.8330  -20.7660 C.3   305  ASN305      0.1169
    176  CG         3.4670   -7.7290  -21.6340 C.2   305  ASN305      0.2627
    177  OD1        3.1890   -6.5490  -21.4110 O.2   305  ASN305     -0.2716
    178  ND2        4.2570   -8.1030  -22.6340 N.am  305  ASN305     -0.0877
    179  N          1.4090   -7.4360  -18.6270 N.am  306  VAL306     -0.1966
    180  CA         0.9900   -6.3560  -17.7420 C.3   306  VAL306      0.1727
    181  C          1.1880   -4.9790  -18.3770 C.2   306  VAL306      0.2616
    182  O          0.4780   -4.0300  -18.0510 O.2   306  VAL306     -0.2715
    183  CB         1.7690   -6.4190  -16.4080 C.3   306  VAL306      0.0290
    184  CG1        3.2600   -6.2680  -16.6690 C.3   306  VAL306      0.0023
    185  CG2        1.2690   -5.3510  -15.4570 C.3   306  VAL306      0.0023
    186  N          2.1450   -4.8760  -19.2940 N.am  307  ASP307     -0.1971
    187  CA         2.5020   -3.5880  -19.8890 C.3   307  ASP307      0.1709
    188  C          1.5370   -3.1340  -20.9760 C.2   307  ASP307      0.2293
    189  O          1.5760   -1.9790  -21.4070 O.2   307  ASP307     -0.2864
    190  CB         3.9170   -3.6480  -20.4640 C.3   307  ASP307      0.1436
    191  CG         4.9870   -3.6390  -19.3860 C.2   307  ASP307      0.3671
    192  OD1        6.0080   -4.3410  -19.5560 O.co2 307  ASP307     -0.2456
    193  OD2        4.8170   -2.9190  -18.3760 O.co2 307  ASP307     -0.2456
@<TRIPOS>BOND
     1    49    50    1
     2    43    44    2
     3    43    42    1
     4    53    54    1
     5    53    50    1
     6    54    55    1
     7    50    51    1
     8    65    64   ar
     9    57    56    1
    10    41    42    1
    11    42    45    1
    12    45    46    1
    13    64    63    1
    14    64    66   ar
    15    55    56    1
    16    51    58   am
    17    51    52    2
    18    63    62    1
    19    58    59    1
    20    46    47    1
    21    46    48    1
    22    62    59    1
    23    59    60    1
    24    61    60    2
    25    60    67   am
    26   158   156    1
    27   156   157    1
    28   156   155    2
    29   154   155    1
    30   154   153    1
    31    67    68    1
    32    85    83    1
    33   153   152    1
    34    83    82    1
    35   140   141    1
    36   147   145    1
    37    68    69    1
    38    68    71    1
    39    70    69    2
    40   145   146    1
    41   145   144    1
    42    69    78   am
    43   141   144    1
    44   141   142    1
    45    78    79    1
    46   152   149    1
    47    72    71    1
    48    72    73    1
    49    82    79    1
    50    82    84    1
    51    79    80    1
    52   148   149    1
    53    74    73    1
    54    74    75    2
    55   142   143    2
    56   149   150    1
    57    76    75    1
    58    75    77    1
    59    80    86   am
    60    80    81    2
    61   169   167    1
    62    86    87    1
    63   150   151    2
    64   150   159   am
    65   170   168    1
    66    93    92    1
    67   104   105    1
    68   104   103    1
    69    91    92    1
    70    91    90    1
    71   159   160    1
    72   168   167    1
    73   167   164    1
    74   166   165    2
    75    87    90    1
    76    87    88    1
    77   103   102    1
    78   163   164    1
    79   163   161   am
    80    89    88    2
    81   102    99    1
    82   164   165    1
    83   160   161    1
    84    88    94   am
    85   161   162    2
    86   101   100    2
    87    99   100    1
    88    99    98    1
    89   100   106   am
    90    98    96   am
    91    94    95    1
    92    26    25    1
    93   106   107    1
    94   107   108    1
    95    96    95    1
    96    96    97    2
    97   139   138    1
    98    23    22    1
    99    23    24    1
   100    25    24    2
   101    25    27    1
   102   108   110   am
   103   108   109    2
   104   134   133    2
   105    39    38    2
   106    22    21    1
   107   136   135    1
   108   136   137    1
   109   110   111    1
   110     9     7   ar
   111    15    14    1
   112    15    16    1
   113   138   137    1
   114   135   132    1
   115    14    11    1
   116   178   176   am
   117   133   132    1
   118    37    40    1
   119    37    38    1
   120    37    36    1
   121   132   131    1
   122     8     7   ar
   123   113   112    2
   124     7     6    1
   125   171   172    1
   126    21    18    1
   127   111   112    1
   128   111   114    1
   129    13    12    2
   130   126   127    1
   131   126   125    1
   132   112   120   am
   133   176   177    2
   134   176   175    1
   135   127   128    2
   136    36    34   am
   137    18    17    1
   138    18    19    1
   139    12    17   am
   140    12    11    1
   141    16    10    1
   142    11    10    1
   143   189   188    2
   144    35    34    2
   145   188   187    1
   146    34    33    1
   147   120   121    1
   148   114   115    1
   149   130   128    1
   150   175   172    1
   151   128   129    1
   152   121   122    1
   153   121   124    1
   154     6     5    1
   155   172   173    1
   156   125   124    1
   157   190   187    1
   158   190   191    1
   159     5     2    1
   160   123   122    2
   161   174   173    2
   162    19    20    2
   163    33    32    1
   164   187   186    1
   165   173   179   am
   166   192   191   ar
   167   115   117   ar
   168   115   116   ar
   169   191   193   ar
   170   186   181   am
   171    32    30   am
   172     2     1    1
   173     2     3    1
   174     4     3    2
   175   117   119   ar
   176   179   180    1
   177   116   118   ar
   178   181   182    2
   179   181   180    1
   180    30    31    2
   181    30    29    1
   182   180   183    1
   183   119   118   ar
   184    28    29    1
   185   184   183    1
   186   183   185    1
