@<TRIPOS>MOLECULE
tmp/1ixnC00.pdb
 135 129 0 0 0
SMALL
GASTEIGER

@<TRIPOS>ATOM
      1  N         22.4700   13.0360  -20.7880 N.3     8  ASN8       -0.1240
      2  CA        22.2510   12.4640  -22.1140 C.3     8  ASN8        0.1653
      3  C         22.6440   11.0000  -22.0830 C.2     8  ASN8        0.2266
      4  O         23.8210   10.6650  -21.8960 O.2     8  ASN8       -0.2867
      5  CB        23.1020   13.1720  -23.1600 C.3     8  ASN8        0.1155
      6  CG        22.8280   12.6630  -24.5630 C.2     8  ASN8        0.2627
      7  OD1       22.7240   11.4500  -24.7840 O.2     8  ASN8       -0.2716
      8  ND2       22.7050   13.5840  -25.5210 N.am    8  ASN8       -0.0877
      9  N         22.3850    8.7860  -24.6550 N.3    10  ASP10      -0.1225
     10  CA        22.5680    8.2160  -25.9930 C.3    10  ASP10       0.1805
     11  C         23.5050    7.0150  -26.0120 C.2    10  ASP10       0.2597
     12  O         23.1960    5.9750  -26.6100 O.2    10  ASP10      -0.2718
     13  CB        23.1700    9.2240  -26.9850 C.3    10  ASP10       0.1424
     14  CG        22.2280   10.3550  -27.3580 C.2    10  ASP10       0.3668
     15  OD1       20.9970   10.2310  -27.2070 O.co2  10  ASP10      -0.2456
     16  OD2       22.7470   11.3820  -27.8380 O.co2  10  ASP10      -0.2456
     17  N         24.6550    7.1550  -25.3610 N.am   11  HIS11      -0.1975
     18  CA        25.6510    6.0940  -25.4070 C.3    11  HIS11       0.1656
     19  C         25.3970    4.8160  -24.6350 C.2    11  HIS11       0.2291
     20  O         26.1950    3.8690  -24.7100 O.2    11  HIS11      -0.2864
     21  CB        27.0220    6.6900  -25.1310 C.3    11  HIS11       0.0771
     22  CG        27.4370    7.6680  -26.1860 C.ar   11  HIS11       0.0820
     23  ND1       27.7130    7.2830  -27.4810 N.ar   11  HIS11      -0.2267
     24  CD2       27.5140    9.0200  -26.1740 C.ar   11  HIS11       0.1154
     25  CE1       27.9400    8.3550  -28.2210 C.ar   11  HIS11       0.1986
     26  NE2       27.8250    9.4220  -27.4520 N.ar   11  HIS11      -0.2212
     27  N         19.0860   12.1700  -28.1410 N.3    44  HIS44      -0.1241
     28  CA        19.2200   12.7200  -29.4630 C.3    44  HIS44       0.1621
     29  C         18.7160   11.6350  -30.4030 C.2    44  HIS44       0.2264
     30  O         19.3520   10.5890  -30.5460 O.2    44  HIS44      -0.2867
     31  CB        20.6900   13.0530  -29.7520 C.3    44  HIS44       0.0745
     32  CG        20.9320   13.5840  -31.1340 C.ar   44  HIS44       0.0817
     33  ND1       22.1330   14.1450  -31.5190 N.ar   44  HIS44      -0.2268
     34  CD2       20.1220   13.6490  -32.2210 C.ar   44  HIS44       0.1154
     35  CE1       22.0510   14.5350  -32.7790 C.ar   44  HIS44       0.1986
     36  NE2       20.8410   14.2440  -33.2280 N.ar   44  HIS44      -0.2212
     37  N         18.7040   10.3660  -33.6240 N.3    46  ARG46      -0.1245
     38  CA        19.4610   10.5910  -34.8510 C.3    46  ARG46       0.1563
     39  C         18.7430   10.0820  -36.0850 C.2    46  ARG46       0.2260
     40  O         17.9150    9.1700  -36.0220 O.2    46  ARG46      -0.2867
     41  CB        20.8390    9.9360  -34.7770 C.3    46  ARG46       0.0307
     42  CG        21.7060   10.4170  -33.6360 C.3    46  ARG46       0.0489
     43  CD        23.1290    9.9440  -33.8260 C.3    46  ARG46       0.2205
     44  NE        23.9250   10.9500  -34.5210 N.pl3  46  ARG46      -0.0865
     45  CZ        24.4950   11.9900  -33.9200 C.cat  46  ARG46       0.5346
     46  NH1       24.3660   12.1570  -32.6140 N.pl3  46  ARG46       0.1354
     47  NH2       25.1860   12.8710  -34.6240 N.pl3  46  ARG46       0.1354
     48  N         21.1690    5.4350  -34.8480 N.3    50  ARG50      -0.1231
     49  CA        22.4610    4.9030  -34.4510 C.3    50  ARG50       0.1694
     50  C         22.3920    4.3160  -33.0260 C.2    50  ARG50       0.2592
     51  O         22.8920    3.2150  -32.7710 O.2    50  ARG50      -0.2718
     52  CB        23.4410    6.0660  -34.5260 C.3    50  ARG50       0.0321
     53  CG        24.7920    5.8580  -33.9760 C.3    50  ARG50       0.0489
     54  CD        25.5380    7.1900  -34.0350 C.3    50  ARG50       0.2205
     55  NE        25.5560    7.7470  -35.3870 N.pl3  50  ARG50      -0.0865
     56  CZ        26.2540    8.8190  -35.7480 C.cat  50  ARG50       0.5346
     57  NH1       26.9940    9.4570  -34.8550 N.pl3  50  ARG50       0.1354
     58  NH2       26.2180    9.2490  -37.0030 N.pl3  50  ARG50       0.1354
     59  N         21.7860    5.0570  -32.1000 N.am   51  HIS51      -0.1976
     60  CA        21.6500    4.5820  -30.7310 C.3    51  HIS51       0.1656
     61  C         20.2080    4.6600  -30.2240 C.2    51  HIS51       0.2291
     62  O         19.5480    3.6320  -30.1040 O.2    51  HIS51      -0.2864
     63  CB        22.6130    5.3250  -29.7840 C.3    51  HIS51       0.0771
     64  CG        22.8050    6.7740  -30.1020 C.ar   51  HIS51       0.0820
     65  ND1       21.7560    7.6630  -30.2190 N.ar   51  HIS51      -0.2267
     66  CD2       23.9320    7.4990  -30.2910 C.ar   51  HIS51       0.1154
     67  CE1       22.2310    8.8720  -30.4670 C.ar   51  HIS51       0.1986
     68  NE2       23.5480    8.7990  -30.5150 N.ar   51  HIS51      -0.2212
     69  N         16.8260   15.9660  -28.4390 N.3    71  GLU71      -0.1245
     70  CA        17.7670   16.6240  -29.3330 C.3    71  GLU71       0.1567
     71  C         17.4910   16.0570  -30.7150 C.2    71  GLU71       0.2260
     72  O         17.2690   14.8530  -30.8680 O.2    71  GLU71      -0.2867
     73  CB        19.2100   16.3420  -28.9070 C.3    71  GLU71       0.0388
     74  CG        19.7820   17.3570  -27.8980 C.3    71  GLU71       0.1160
     75  CD        21.1060   16.8900  -27.2850 C.2    71  GLU71       0.3649
     76  OE1       21.6380   15.8630  -27.7560 O.co2  71  GLU71      -0.2457
     77  OE2       21.6160   17.5410  -26.3380 O.co2  71  GLU71      -0.2457
     78  N         19.7660   20.8410  -33.1910 N.3    93  VAL93      -0.1245
     79  CA        21.1810   20.7520  -33.5280 C.3    93  VAL93       0.1561
     80  C         21.4180   20.5220  -35.0160 C.2    93  VAL93       0.2260
     81  O         20.5070   20.1800  -35.7580 O.2    93  VAL93      -0.2867
     82  CB        21.8570   19.5840  -32.7590 C.3    93  VAL93       0.0252
     83  CG1       21.7390   19.8040  -31.2640 C.3    93  VAL93       0.0019
     84  CG2       21.1970   18.2580  -33.1370 C.3    93  VAL93       0.0019
     85  N         30.6210   11.5810  -36.6730 N.3   100  VAL100     -0.1231
     86  CA        31.0090   10.8780  -35.4510 C.3   100  VAL100      0.1692
     87  C         30.0430   11.3480  -34.3500 C.2   100  VAL100      0.2593
     88  O         29.4690   10.5400  -33.6240 O.2   100  VAL100     -0.2718
     89  CB        32.4860   11.2400  -35.0310 C.3   100  VAL100      0.0266
     90  CG1       32.8620   10.5380  -33.7360 C.3   100  VAL100      0.0020
     91  CG2       33.4520   10.8480  -36.1310 C.3   100  VAL100      0.0020
     92  N         29.8690   12.6660  -34.2620 N.am  101  THR101     -0.1939
     93  CA        28.9950   13.3040  -33.2770 C.3   101  THR101      0.2028
     94  C         28.6910   14.7110  -33.8050 C.2   101  THR101      0.2642
     95  O         29.1720   15.0910  -34.8740 O.2   101  THR101     -0.2714
     96  CB        29.7020   13.3960  -31.8800 C.3   101  THR101      0.1808
     97  OG1       28.7890   13.8970  -30.8950 O.3   101  THR101     -0.2208
     98  CG2       30.9120   14.3150  -31.9470 C.3   101  THR101      0.0379
     99  N         27.8860   15.4780  -33.0800 N.am  102  THR102     -0.1950
    100  CA        27.5540   16.8360  -33.4980 C.3   102  THR102      0.1897
    101  C         28.8570   17.6210  -33.6290 C.2   102  THR102      0.2313
    102  O         29.7040   17.5700  -32.7300 O.2   102  THR102     -0.2863
    103  CB        26.6670   17.5230  -32.4600 C.3   102  THR102      0.1794
    104  OG1       25.5200   16.7070  -32.2050 O.3   102  THR102     -0.2208
    105  CG2       26.2270   18.8970  -32.9490 C.3   102  THR102      0.0378
    106  N         20.9410   24.8840  -30.2540 N.3   132  PHE132     -0.1241
    107  CA        22.3320   24.5680  -29.9460 C.3   132  PHE132      0.1605
    108  C         23.1830   25.4230  -30.8800 C.2   132  PHE132      0.2264
    109  O         23.0800   25.2820  -32.0990 O.2   132  PHE132     -0.2867
    110  CB        22.5780   23.0790  -30.2110 C.3   132  PHE132      0.0534
    111  CG        23.9630   22.6240  -29.8940 C.ar  132  PHE132     -0.0203
    112  CD1       24.8730   22.3720  -30.9100 C.ar  132  PHE132     -0.0042
    113  CD2       24.3740   22.4700  -28.5690 C.ar  132  PHE132     -0.0042
    114  CE1       26.1750   21.9750  -30.6160 C.ar  132  PHE132     -0.0003
    115  CE2       25.6730   22.0750  -28.2710 C.ar  132  PHE132     -0.0003
    116  CZ        26.5720   21.8280  -29.2930 C.ar  132  PHE132     -0.0000
    117  N         21.7520   26.7290  -26.2980 N.3   152  GLU152     -0.1245
    118  CA        22.6980   25.8860  -25.5850 C.3   152  GLU152      0.1567
    119  C         24.0250   26.1200  -26.2800 C.2   152  GLU152      0.2260
    120  O         24.1890   25.7950  -27.4510 O.2   152  GLU152     -0.2867
    121  CB        22.3130   24.4090  -25.6480 C.3   152  GLU152      0.0388
    122  CG        23.3660   23.4990  -25.0020 C.3   152  GLU152      0.1160
    123  CD        22.8850   22.0750  -24.8080 C.2   152  GLU152      0.3649
    124  OE1       23.6560   21.1360  -25.0760 O.co2 152  GLU152     -0.2457
    125  OE2       21.7380   21.8910  -24.3760 O.co2 152  GLU152     -0.2457
    126  N         28.3050   19.4730  -24.4500 N.3   192  HIS192     -0.1241
    127  CA        29.0580   18.7370  -25.4540 C.3   192  HIS192      0.1621
    128  C         30.5110   18.7780  -25.0760 C.2   192  HIS192      0.2264
    129  O         31.1150   19.8570  -25.0280 O.2   192  HIS192     -0.2867
    130  CB        28.9010   19.2970  -26.8640 C.3   192  HIS192      0.0745
    131  CG        29.3140   18.3290  -27.9240 C.ar  192  HIS192      0.0817
    132  ND1       29.5590   18.7050  -29.2250 N.ar  192  HIS192     -0.2268
    133  CD2       29.5030   16.9910  -27.8800 C.ar  192  HIS192      0.1154
    134  CE1       29.8840   17.6370  -29.9360 C.ar  192  HIS192      0.1986
    135  NE2       29.8570   16.5840  -29.1410 N.ar  192  HIS192     -0.2212
@<TRIPOS>BOND
     1    58    56    1
     2    85    86    1
     3    91    89    1
     4    39    40    2
     5    39    38    1
     6    81    80    2
     7    56    55    2
     8    56    57    1
     9    86    89    1
    10    86    87    1
    11    55    54    1
    12    89    90    1
    13    80    79    1
    14    95    94    2
    15    38    41    1
    16    38    37    1
    17    48    49    1
    18    41    42    1
    19    47    45    1
    20    52    49    1
    21    52    53    1
    22    44    45    2
    23    44    43    1
    24    49    50    1
    25    87    92   am
    26    87    88    2
    27    92    93    1
    28    54    53    1
    29    45    46    1
    30    43    42    1
    31    94    93    1
    32    94    99   am
    33   101   100    1
    34   101   102    2
    35    79    78    1
    36    79    82    1
    37   100    99    1
    38   100   103    1
    39    93    96    1
    40    36    35   ar
    41    36    34   ar
    42    84    82    1
    43    50    51    2
    44    50    59   am
    45   105   103    1
    46    35    33   ar
    47    82    83    1
    48   103   104    1
    49    34    32   ar
    50    59    60    1
    51   109   108    2
    52    98    96    1
    53    96    97    1
    54    33    32   ar
    55    32    31    1
    56   112   114   ar
    57   112   111   ar
    58   108   107    1
    59    72    71    2
    60    60    61    1
    61    60    63    1
    62    71    70    1
    63   114   116   ar
    64    30    29    2
    65    68    67   ar
    66    68    66   ar
    67    67    65   ar
    68    29    28    1
    69    66    64   ar
    70   106   107    1
    71    61    62    2
    72    65    64   ar
    73   110   107    1
    74   110   111    1
    75    64    63    1
    76   134   132   ar
    77   134   135   ar
    78   111   113   ar
    79    31    28    1
    80    28    27    1
    81    70    73    1
    82    70    69    1
    83   116   115   ar
    84   132   131   ar
    85   135   133   ar
    86    73    74    1
    87   113   115   ar
    88    25    23   ar
    89    25    26   ar
    90   131   133   ar
    91   131   130    1
    92    74    75    1
    93    16    14   ar
    94    76    75   ar
    95    23    22   ar
    96    26    24   ar
    97   120   119    2
    98    14    15   ar
    99    14    13    1
   100    75    77   ar
   101    13    10    1
   102   130   127    1
   103    12    11    2
   104   117   118    1
   105   119   118    1
   106    22    24   ar
   107    22    21    1
   108    11    10    1
   109    11    17   am
   110    10     9    1
   111   121   118    1
   112   121   122    1
   113     8     6   am
   114   127   128    1
   115   127   126    1
   116    18    17    1
   117    18    21    1
   118    18    19    1
   119   128   129    2
   120   124   123   ar
   121   122   123    1
   122   123   125   ar
   123     7     6    2
   124    20    19    2
   125     6     5    1
   126     5     2    1
   127     2     3    1
   128     2     1    1
   129     3     4    2
