@<TRIPOS>MOLECULE
tmp/1ixnC01.pdb
 128 122 0 0 0
SMALL
GASTEIGER

@<TRIPOS>ATOM
      1  N         22.4700   13.0360  -20.7880 N.3     8  ASN8       -0.1240
      2  CA        22.2510   12.4640  -22.1140 C.3     8  ASN8        0.1653
      3  C         22.6440   11.0000  -22.0830 C.2     8  ASN8        0.2266
      4  O         23.8210   10.6650  -21.8960 O.2     8  ASN8       -0.2867
      5  CB        23.1020   13.1720  -23.1600 C.3     8  ASN8        0.1155
      6  CG        22.8280   12.6630  -24.5630 C.2     8  ASN8        0.2627
      7  OD1       22.7240   11.4500  -24.7840 O.2     8  ASN8       -0.2716
      8  ND2       22.7050   13.5840  -25.5210 N.am    8  ASN8       -0.0877
      9  N         24.6550    7.1550  -25.3610 N.3    11  HIS11      -0.1241
     10  CA        25.6510    6.0940  -25.4070 C.3    11  HIS11       0.1621
     11  C         25.3970    4.8160  -24.6350 C.2    11  HIS11       0.2264
     12  O         26.1950    3.8690  -24.7100 O.2    11  HIS11      -0.2867
     13  CB        27.0220    6.6900  -25.1310 C.3    11  HIS11       0.0745
     14  CG        27.4370    7.6680  -26.1860 C.ar   11  HIS11       0.0817
     15  ND1       27.7130    7.2830  -27.4810 N.ar   11  HIS11      -0.2268
     16  CD2       27.5140    9.0200  -26.1740 C.ar   11  HIS11       0.1154
     17  CE1       27.9400    8.3550  -28.2210 C.ar   11  HIS11       0.1986
     18  NE2       27.8250    9.4220  -27.4520 N.ar   11  HIS11      -0.2212
     19  N         18.2300   13.5430  -21.3880 N.3    42  THR42      -0.1218
     20  CA        18.3740   13.9750  -22.7600 C.3    42  THR42       0.1862
     21  C         18.6330   12.8370  -23.7340 C.2    42  THR42       0.2287
     22  O         19.4160   11.9210  -23.4400 O.2    42  THR42      -0.2866
     23  CB        19.5230   15.0150  -22.8590 C.3    42  THR42       0.1770
     24  OG1       19.1650   16.1760  -22.1010 O.3    42  THR42      -0.2211
     25  CG2       19.7900   15.4130  -24.3090 C.3    42  THR42       0.0375
     26  N         16.8260   15.9660  -28.4390 N.3    71  GLU71      -0.1245
     27  CA        17.7670   16.6240  -29.3330 C.3    71  GLU71       0.1567
     28  C         17.4910   16.0570  -30.7150 C.2    71  GLU71       0.2260
     29  O         17.2690   14.8530  -30.8680 O.2    71  GLU71      -0.2867
     30  CB        19.2100   16.3420  -28.9070 C.3    71  GLU71       0.0388
     31  CG        19.7820   17.3570  -27.8980 C.3    71  GLU71       0.1160
     32  CD        21.1060   16.8900  -27.2850 C.2    71  GLU71       0.3649
     33  OE1       21.6380   15.8630  -27.7560 O.co2  71  GLU71      -0.2457
     34  OE2       21.6160   17.5410  -26.3380 O.co2  71  GLU71      -0.2457
     35  N         15.8290   20.3510  -28.3410 N.3    91  CYS91      -0.1235
     36  CA        17.0640   21.0710  -28.6460 C.3    91  CYS91       0.1677
     37  C         17.4240   20.8360  -30.1220 C.2    91  CYS91       0.2270
     38  O         17.6590   19.7060  -30.5490 O.2    91  CYS91      -0.2867
     39  CB        18.1950   20.5940  -27.7260 C.3    91  CYS91       0.0956
     40  SG        19.7910   21.4560  -27.9330 S.3    91  CYS91      -0.0801
     41  N         19.7660   20.8410  -33.1910 N.3    93  VAL93      -0.1245
     42  CA        21.1810   20.7520  -33.5280 C.3    93  VAL93       0.1561
     43  C         21.4180   20.5220  -35.0160 C.2    93  VAL93       0.2260
     44  O         20.5070   20.1800  -35.7580 O.2    93  VAL93      -0.2867
     45  CB        21.8570   19.5840  -32.7590 C.3    93  VAL93       0.0252
     46  CG1       21.7390   19.8040  -31.2640 C.3    93  VAL93       0.0019
     47  CG2       21.1970   18.2580  -33.1370 C.3    93  VAL93       0.0019
     48  N         20.9410   24.8840  -30.2540 N.3   132  PHE132     -0.1241
     49  CA        22.3320   24.5680  -29.9460 C.3   132  PHE132      0.1605
     50  C         23.1830   25.4230  -30.8800 C.2   132  PHE132      0.2264
     51  O         23.0800   25.2820  -32.0990 O.2   132  PHE132     -0.2867
     52  CB        22.5780   23.0790  -30.2110 C.3   132  PHE132      0.0534
     53  CG        23.9630   22.6240  -29.8940 C.ar  132  PHE132     -0.0203
     54  CD1       24.8730   22.3720  -30.9100 C.ar  132  PHE132     -0.0042
     55  CD2       24.3740   22.4700  -28.5690 C.ar  132  PHE132     -0.0042
     56  CE1       26.1750   21.9750  -30.6160 C.ar  132  PHE132     -0.0003
     57  CE2       25.6730   22.0750  -28.2710 C.ar  132  PHE132     -0.0003
     58  CZ        26.5720   21.8280  -29.2930 C.ar  132  PHE132     -0.0000
     59  N         21.7520   26.7290  -26.2980 N.3   152  GLU152     -0.1245
     60  CA        22.6980   25.8860  -25.5850 C.3   152  GLU152      0.1567
     61  C         24.0250   26.1200  -26.2800 C.2   152  GLU152      0.2260
     62  O         24.1890   25.7950  -27.4510 O.2   152  GLU152     -0.2867
     63  CB        22.3130   24.4090  -25.6480 C.3   152  GLU152      0.0388
     64  CG        23.3660   23.4990  -25.0020 C.3   152  GLU152      0.1160
     65  CD        22.8850   22.0750  -24.8080 C.2   152  GLU152      0.3649
     66  OE1       23.6560   21.1360  -25.0760 O.co2 152  GLU152     -0.2457
     67  OE2       21.7380   21.8910  -24.3760 O.co2 152  GLU152     -0.2457
     68  N         26.8630   22.6070  -23.2640 N.3   191  GLY191     -0.1210
     69  CA        27.1130   21.1870  -23.3130 C.3   191  GLY191      0.1956
     70  C         27.8440   20.7160  -24.5510 C.2   191  GLY191      0.2612
     71  O         27.9720   21.4420  -25.5430 O.2   191  GLY191     -0.2717
     72  N         28.3050   19.4730  -24.4500 N.am  192  HIS192     -0.1961
     73  CA        29.0580   18.7370  -25.4540 C.3   192  HIS192      0.1787
     74  C         30.5110   18.7780  -25.0760 C.2   192  HIS192      0.2621
     75  O         31.1150   19.8570  -25.0280 O.2   192  HIS192     -0.2715
     76  CB        28.9010   19.2970  -26.8640 C.3   192  HIS192      0.0785
     77  CG        29.3140   18.3290  -27.9240 C.ar  192  HIS192      0.0821
     78  ND1       29.5590   18.7050  -29.2250 N.ar  192  HIS192     -0.2267
     79  CD2       29.5030   16.9910  -27.8800 C.ar  192  HIS192      0.1154
     80  CE1       29.8840   17.6370  -29.9360 C.ar  192  HIS192      0.1986
     81  NE2       29.8570   16.5840  -29.1410 N.ar  192  HIS192     -0.2212
     82  N         31.0620   17.5970  -24.8010 N.am  193  GLY193     -0.1940
     83  CA        32.4570   17.4780  -24.4100 C.3   193  GLY193      0.2014
     84  C         32.7640   17.7580  -22.9440 C.2   193  GLY193      0.2638
     85  O         33.9270   17.7100  -22.5290 O.2   193  GLY193     -0.2714
     86  N         31.7500   18.0550  -22.1410 N.am  194  LEU194     -0.1977
     87  CA        32.0410   18.3350  -20.7350 C.3   194  LEU194      0.1596
     88  C         32.4550   17.0680  -19.9930 C.2   194  LEU194      0.2287
     89  O         31.8280   16.0180  -20.1200 O.2   194  LEU194     -0.2864
     90  CB        30.8460   19.0000  -20.0600 C.3   194  LEU194      0.0297
     91  CG        30.4840   20.3630  -20.6650 C.3   194  LEU194      0.0022
     92  CD1       29.4050   20.9850  -19.8240 C.3   194  LEU194      0.0001
     93  CD2       31.7140   21.2880  -20.7460 C.3   194  LEU194      0.0001
     94  N         24.1190   19.9610  -20.1880 N.3   212  ASN212     -0.1225
     95  CA        23.7650   18.6600  -20.7280 C.3   212  ASN212      0.1785
     96  C         25.0500   17.8960  -20.9960 C.2   212  ASN212      0.2597
     97  O         25.9170   18.3520  -21.7580 O.2   212  ASN212     -0.2718
     98  CB        22.9280   18.8360  -21.9930 C.3   212  ASN212      0.1169
     99  CG        21.4520   19.0470  -21.6840 C.2   212  ASN212      0.2627
    100  OD1       20.7330   18.0890  -21.4040 O.2   212  ASN212     -0.2716
    101  ND2       20.9990   20.3010  -21.7090 N.am  212  ASN212     -0.0877
    102  N         25.1780   16.7360  -20.3530 N.am  213  ILE213     -0.1966
    103  CA        26.3810   15.9380  -20.5010 C.3   213  ILE213      0.1727
    104  C         26.0500   14.4740  -20.7720 C.2   213  ILE213      0.2617
    105  O         25.1310   13.9300  -20.1730 O.2   213  ILE213     -0.2715
    106  CB        27.2240   16.0570  -19.2280 C.3   213  ILE213      0.0290
    107  CG1       27.3070   17.5350  -18.8270 C.3   213  ILE213      0.0022
    108  CG2       28.5920   15.4470  -19.4520 C.3   213  ILE213      0.0023
    109  CD1       27.9040   17.7830  -17.4520 C.3   213  ILE213      0.0001
    110  N         26.7980   13.8360  -21.6670 N.am  214  GLY214     -0.1940
    111  CA        26.5110   12.4430  -21.9610 C.3   214  GLY214      0.2014
    112  C         27.6780   11.4620  -21.9520 C.2   214  GLY214      0.2639
    113  O         27.9060   10.7200  -20.9820 O.2   214  GLY214     -0.2714
    114  N         28.4170   11.4560  -23.0510 N.am  215  HIS215     -0.1959
    115  CA        29.5490   10.5630  -23.2120 C.3   215  HIS215      0.1787
    116  C         30.4790   10.4540  -21.9980 C.2   215  HIS215      0.2620
    117  O         30.7940    9.3520  -21.5570 O.2   215  HIS215     -0.2715
    118  CB        30.3630   10.9690  -24.4500 C.3   215  HIS215      0.0785
    119  CG        31.4120    9.9720  -24.8280 C.ar  215  HIS215      0.0821
    120  ND1       31.1070    8.7400  -25.3660 N.ar  215  HIS215     -0.2267
    121  CD2       32.7560    9.9940  -24.6770 C.ar  215  HIS215      0.1154
    122  CE1       32.2170    8.0440  -25.5260 C.ar  215  HIS215      0.1986
    123  NE2       33.2330    8.7820  -25.1160 N.ar  215  HIS215     -0.2212
    124  N         30.9200   11.5850  -21.4600 N.am  216  ALA216     -0.1977
    125  CA        31.8330   11.5590  -20.3170 C.3   216  ALA216      0.1597
    126  C         31.2440   10.7690  -19.1310 C.2   216  ALA216      0.2287
    127  O         31.9450    9.9920  -18.4640 O.2   216  ALA216     -0.2864
    128  CB        32.1820   12.9960  -19.8920 C.3   216  ALA216      0.0319
@<TRIPOS>BOND
     1    44    43    2
     2    43    42    1
     3    42    41    1
     4    42    45    1
     5    47    45    1
     6    45    46    1
     7    51    50    2
     8    54    56   ar
     9    54    53   ar
    10    50    49    1
    11    29    28    2
    12    28    27    1
    13    56    58   ar
    14    38    37    2
    15    48    49    1
    16    52    49    1
    17    52    53    1
    18    37    36    1
    19    80    78   ar
    20    80    81   ar
    21    53    55   ar
    22    27    30    1
    23    27    26    1
    24    58    57   ar
    25    78    77   ar
    26    81    79   ar
    27    30    31    1
    28    36    35    1
    29    36    39    1
    30    55    57   ar
    31    17    15   ar
    32    17    18   ar
    33    40    39    1
    34    77    79   ar
    35    77    76    1
    36    31    32    1
    37    33    32   ar
    38    15    14   ar
    39    18    16   ar
    40    62    61    2
    41    32    34   ar
    42    76    73    1
    43    59    60    1
    44    61    60    1
    45    14    16   ar
    46    14    13    1
    47    63    60    1
    48    63    64    1
    49    71    70    2
    50   122   120   ar
    51   122   123   ar
    52     8     6   am
    53    73    74    1
    54    73    72    1
    55    10     9    1
    56    10    13    1
    57    10    11    1
    58   120   119   ar
    59   123   121   ar
    60    74    75    2
    61    74    82   am
    62    66    65   ar
    63    64    65    1
    64   119   121   ar
    65   119   118    1
    66    65    67   ar
    67    82    83    1
    68     7     6    2
    69    12    11    2
    70     6     5    1
    71    70    72   am
    72    70    69    1
    73   118   115    1
    74    83    84    1
    75    25    23    1
    76    21    22    2
    77    21    20    1
    78    69    68    1
    79   115   114    1
    80   115   116    1
    81     5     2    1
    82   114   112   am
    83    84    85    2
    84    84    86   am
    85    23    20    1
    86    23    24    1
    87    20    19    1
    88    86    87    1
    89     2     3    1
    90     2     1    1
    91     3     4    2
    92   116   117    2
    93   116   124   am
    94    98    99    1
    95    98    95    1
    96   111   112    1
    97   111   110    1
    98   112   113    2
    99    97    96    2
   100   101    99   am
   101    99   100    2
   102   110   104   am
   103   124   125    1
   104    96    95    1
   105    96   102   am
   106   104   103    1
   107   104   105    2
   108    93    91    1
   109    87    90    1
   110    87    88    1
   111    95    94    1
   112    91    90    1
   113    91    92    1
   114   103   102    1
   115   103   106    1
   116   125   128    1
   117   125   126    1
   118    89    88    2
   119   108   106    1
   120   106   107    1
   121   126   127    2
   122   107   109    1
