@<TRIPOS>MOLECULE
tmp/1ixoC01.pdb
 103 98 0 0 0
SMALL
GASTEIGER

@<TRIPOS>ATOM
      1  N         22.8140   12.8940  -20.8660 N.3     8  ASN8       -0.1240
      2  CA        22.5470   12.3490  -22.1720 C.3     8  ASN8        0.1653
      3  C         22.8500   10.8750  -22.0930 C.2     8  ASN8        0.2266
      4  O         23.9960   10.4900  -21.8360 O.2     8  ASN8       -0.2867
      5  CB        23.4410   12.9920  -23.2350 C.3     8  ASN8        0.1155
      6  CG        23.0360   12.5830  -24.6230 C.2     8  ASN8        0.2627
      7  OD1       22.8690   11.3980  -24.9030 O.2     8  ASN8       -0.2716
      8  ND2       22.8590   13.5540  -25.4990 N.am    8  ASN8       -0.0877
      9  N         22.4750    8.6950  -24.6590 N.3    10  ASP10      -0.1225
     10  CA        22.6960    8.1070  -25.9870 C.3    10  ASP10       0.1805
     11  C         23.7100    6.9610  -25.9700 C.2    10  ASP10       0.2597
     12  O         23.4710    5.8890  -26.5500 O.2    10  ASP10      -0.2718
     13  CB        23.2370    9.1350  -26.9930 C.3    10  ASP10       0.1424
     14  CG        22.2150   10.1380  -27.4220 C.2    10  ASP10       0.3668
     15  OD1       21.0140    9.8380  -27.3230 O.co2  10  ASP10      -0.2456
     16  OD2       22.6190   11.2260  -27.8820 O.co2  10  ASP10      -0.2456
     17  N         24.8510    7.1810  -25.3210 N.am   11  HIS11      -0.1975
     18  CA        25.8620    6.1390  -25.3380 C.3    11  HIS11       0.1656
     19  C         25.5260    4.8310  -24.6760 C.2    11  HIS11       0.2291
     20  O         26.2100    3.8300  -24.9100 O.2    11  HIS11      -0.2864
     21  CB        27.2020    6.6880  -24.8890 C.3    11  HIS11       0.0771
     22  CG        27.8050    7.5960  -25.9100 C.ar   11  HIS11       0.0820
     23  ND1       27.1670    7.8870  -27.1000 N.ar   11  HIS11      -0.2267
     24  CD2       28.9490    8.3150  -25.9160 C.ar   11  HIS11       0.1154
     25  CE1       27.8900    8.7490  -27.7890 C.ar   11  HIS11       0.1986
     26  NE2       28.9760    9.0260  -27.0920 N.ar   11  HIS11      -0.2212
     27  N         19.0110   11.7900  -28.2300 N.3    44  HIS44      -0.1241
     28  CA        19.1450   12.3280  -29.5580 C.3    44  HIS44       0.1621
     29  C         18.6680   11.2990  -30.5640 C.2    44  HIS44       0.2264
     30  O         19.3100   10.2690  -30.7590 O.2    44  HIS44      -0.2867
     31  CB        20.6040   12.6750  -29.8300 C.3    44  HIS44       0.0745
     32  CG        20.8500   13.2310  -31.1970 C.ar   44  HIS44       0.0817
     33  ND1       22.1090   13.5760  -31.6400 N.ar   44  HIS44      -0.2268
     34  CD2       20.0030   13.5100  -32.2160 C.ar   44  HIS44       0.1154
     35  CE1       22.0250   14.0440  -32.8740 C.ar   44  HIS44       0.1986
     36  NE2       20.7580   14.0140  -33.2470 N.ar   44  HIS44      -0.2212
     37  N         18.5650   10.2060  -34.0120 N.3    46  ARG46      -0.1245
     38  CA        19.2710   10.4810  -35.2600 C.3    46  ARG46       0.1563
     39  C         18.4610    9.8040  -36.3470 C.2    46  ARG46       0.2260
     40  O         17.8070    8.7970  -36.0840 O.2    46  ARG46      -0.2867
     41  CB        20.6660    9.8770  -35.2370 C.3    46  ARG46       0.0307
     42  CG        21.4120   10.0840  -33.9400 C.3    46  ARG46       0.0489
     43  CD        22.6940    9.2910  -33.9720 C.3    46  ARG46       0.2205
     44  NE        23.6250    9.8790  -34.9200 N.pl3  46  ARG46      -0.0865
     45  CZ        24.4520   10.8730  -34.6110 C.cat  46  ARG46       0.5346
     46  NH1       24.4650   11.3690  -33.3720 N.pl3  46  ARG46       0.1354
     47  NH2       25.2480   11.3890  -35.5430 N.pl3  46  ARG46       0.1354
     48  N         21.0690    5.2630  -35.0810 N.3    50  ARG50      -0.1231
     49  CA        22.3440    4.6490  -34.7350 C.3    50  ARG50       0.1694
     50  C         22.2890    4.0760  -33.3150 C.2    50  ARG50       0.2592
     51  O         22.5790    2.8980  -33.1050 O.2    50  ARG50      -0.2718
     52  CB        23.4580    5.6940  -34.8250 C.3    50  ARG50       0.0321
     53  CG        24.8680    5.1400  -34.7830 C.3    50  ARG50       0.0489
     54  CD        25.8650    6.2180  -34.3300 C.3    50  ARG50       0.2205
     55  NE        25.6840    7.4990  -35.0180 N.pl3  50  ARG50      -0.0865
     56  CZ        25.9180    7.7040  -36.3110 C.cat  50  ARG50       0.5346
     57  NH1       26.3530    6.7060  -37.0750 N.pl3  50  ARG50       0.1354
     58  NH2       25.6990    8.9040  -36.8430 N.pl3  50  ARG50       0.1354
     59  N         21.9400    4.9070  -32.3350 N.am   51  HIS51      -0.1976
     60  CA        21.8410    4.4140  -30.9710 C.3    51  HIS51       0.1656
     61  C         20.4100    4.4360  -30.4030 C.2    51  HIS51       0.2291
     62  O         19.7880    3.3890  -30.2480 O.2    51  HIS51      -0.2864
     63  CB        22.8320    5.1390  -30.0290 C.3    51  HIS51       0.0771
     64  CG        23.0000    6.6110  -30.2870 C.ar   51  HIS51       0.0820
     65  ND1       21.9560    7.5120  -30.2300 N.ar   51  HIS51      -0.2267
     66  CD2       24.1160    7.3480  -30.5150 C.ar   51  HIS51       0.1154
     67  CE1       22.4200    8.7360  -30.4090 C.ar   51  HIS51       0.1986
     68  NE2       23.7280    8.6640  -30.5840 N.ar   51  HIS51      -0.2212
     69  N         16.8860   15.6620  -28.6480 N.3    71  GLU71      -0.1245
     70  CA        17.8480   16.2860  -29.5360 C.3    71  GLU71       0.1567
     71  C         17.5160   15.7740  -30.9340 C.2    71  GLU71       0.2260
     72  O         17.2570   14.5880  -31.0930 O.2    71  GLU71      -0.2867
     73  CB        19.2520   15.8810  -29.1420 C.3    71  GLU71       0.0388
     74  CG        20.0600   17.0520  -28.6660 C.3    71  GLU71       0.1160
     75  CD        21.4350   16.6390  -28.1820 C.2    71  GLU71       0.3649
     76  OE1       22.1500   15.9550  -28.9470 O.co2  71  GLU71      -0.2457
     77  OE2       21.7910   17.0060  -27.0430 O.co2  71  GLU71      -0.2457
     78  N         19.7110   20.4820  -33.3980 N.3    93  VAL93      -0.1245
     79  CA        21.1280   20.3920  -33.7450 C.3    93  VAL93       0.1561
     80  C         21.3110   20.1730  -35.2360 C.2    93  VAL93       0.2260
     81  O         20.3600   19.8570  -35.9450 O.2    93  VAL93      -0.2867
     82  CB        21.8180   19.2070  -33.0000 C.3    93  VAL93       0.0252
     83  CG1       21.8060   19.4390  -31.4910 C.3    93  VAL93       0.0019
     84  CG2       21.0970   17.9070  -33.3330 C.3    93  VAL93       0.0019
     85  N         21.8720   26.4770  -26.4020 N.3   145  GLU145     -0.1245
     86  CA        22.8040   25.6190  -25.7060 C.3   145  GLU145      0.1567
     87  C         24.1250   25.8960  -26.3810 C.2   145  GLU145      0.2260
     88  O         24.3000   25.5820  -27.5570 O.2   145  GLU145     -0.2867
     89  CB        22.4630   24.1450  -25.8560 C.3   145  GLU145      0.0388
     90  CG        23.3370   23.2900  -24.9430 C.3   145  GLU145      0.1160
     91  CD        23.1840   21.7980  -25.1670 C.2   145  GLU145      0.3649
     92  OE1       24.0320   21.2080  -25.8520 O.co2 145  GLU145     -0.2457
     93  OE2       22.2120   21.2180  -24.6670 O.co2 145  GLU145     -0.2457
     94  N         28.5380   19.3610  -24.3280 N.3   185  HIS185     -0.1241
     95  CA        29.3200   18.7800  -25.3990 C.3   185  HIS185      0.1621
     96  C         30.7620   18.7740  -25.0230 C.2   185  HIS185      0.2264
     97  O         31.4000   19.8260  -24.9830 O.2   185  HIS185     -0.2867
     98  CB        29.1880   19.5590  -26.6810 C.3   185  HIS185      0.0745
     99  CG        28.6300   18.7500  -27.7900 C.ar  185  HIS185      0.0817
    100  ND1       29.2670   17.6250  -28.2710 N.ar  185  HIS185     -0.2268
    101  CD2       27.4670   18.8620  -28.4760 C.ar  185  HIS185      0.1154
    102  CE1       28.5170   17.0780  -29.2130 C.ar  185  HIS185      0.1986
    103  NE2       27.4210   17.8100  -29.3580 N.ar  185  HIS185     -0.2212
@<TRIPOS>BOND
     1    57    56    1
     2    58    56    1
     3    39    40    2
     4    39    38    1
     5    56    55    2
     6    81    80    2
     7    47    45    1
     8    38    41    1
     9    38    37    1
    10    41    42    1
    11    80    79    1
    12    48    49    1
    13    55    54    1
    14    44    45    2
    15    44    43    1
    16    52    53    1
    17    52    49    1
    18    53    54    1
    19    49    50    1
    20    45    46    1
    21    43    42    1
    22    79    78    1
    23    79    82    1
    24    84    82    1
    25    50    51    2
    26    50    59   am
    27    36    35   ar
    28    36    34   ar
    29    82    83    1
    30    35    33   ar
    31    59    60    1
    32    34    32   ar
    33    33    32   ar
    34    32    31    1
    35    72    71    2
    36    60    61    1
    37    60    63    1
    38    71    70    1
    39    30    29    2
    40    68    66   ar
    41    68    67   ar
    42    29    28    1
    43    66    64   ar
    44    67    65   ar
    45    61    62    2
    46    64    65   ar
    47    64    63    1
    48    31    28    1
    49    28    27    1
    50    70    73    1
    51    70    69    1
    52   103   102   ar
    53   103   101   ar
    54   102   100   ar
    55    73    74    1
    56    76    75   ar
    57    74    75    1
    58   101    99   ar
    59   100    99   ar
    60    75    77   ar
    61    16    14   ar
    62    99    98    1
    63    25    23   ar
    64    25    26   ar
    65    88    87    2
    66    14    15   ar
    67    14    13    1
    68    23    22   ar
    69    26    24   ar
    70    13    10    1
    71    98    95    1
    72    12    11    2
    73    85    86    1
    74    87    86    1
    75    10    11    1
    76    10     9    1
    77    11    17   am
    78    24    22   ar
    79    22    21    1
    80    89    86    1
    81    89    90    1
    82    92    91   ar
    83     8     6   am
    84    95    96    1
    85    95    94    1
    86    18    17    1
    87    18    21    1
    88    18    19    1
    89    91    90    1
    90    91    93   ar
    91    96    97    2
    92    20    19    2
    93     7     6    2
    94     6     5    1
    95     5     2    1
    96     2     3    1
    97     2     1    1
    98     3     4    2
