@<TRIPOS>MOLECULE
tmp/1ixsB00.pdb
 164 158 0 0 0
SMALL
GASTEIGER

@<TRIPOS>ATOM
      1  N          4.6740   33.7800   28.7420 N.3     3  LEU3       -0.1231
      2  CA         3.7500   33.5120   29.8380 C.3     3  LEU3        0.1693
      3  C          4.4370   33.5430   31.2100 C.2     3  LEU3        0.2592
      4  O          5.4980   32.9430   31.4190 O.2     3  LEU3       -0.2718
      5  CB         3.0470   32.1690   29.6350 C.3     3  LEU3        0.0284
      6  CG         1.8810   31.9910   30.6110 C.3     3  LEU3        0.0019
      7  CD1        0.8090   33.0230   30.2650 C.3     3  LEU3        0.0001
      8  CD2        1.3190   30.5780   30.5430 C.3     3  LEU3        0.0001
      9  N          3.7950   34.2500   32.1380 N.am    4  ARG4       -0.1966
     10  CA         4.2790   34.4410   33.4970 C.3     4  ARG4        0.1714
     11  C          3.1380   34.1230   34.4560 C.2     4  ARG4        0.2458
     12  O          2.0700   33.7000   34.0290 O.2     4  ARG4       -0.2730
     13  CB         4.6590   35.9000   33.6780 C.3     4  ARG4        0.0347
     14  CG         3.4540   36.8210   33.5630 C.3     4  ARG4        0.0492
     15  CD         3.6670   38.1130   34.3280 C.3     4  ARG4        0.2205
     16  NE         4.8090   38.8800   33.8340 N.pl3   4  ARG4       -0.0865
     17  CZ         4.8140   39.5700   32.6980 C.cat   4  ARG4        0.5346
     18  NH1        3.7230   39.5940   31.9280 N.pl3   4  ARG4        0.1354
     19  NH2        5.9160   40.2260   32.3330 N.pl3   4  ARG4        0.1354
     20  N          3.3430   34.3410   35.7670 N.am    5  PRO5       -0.2727
     21  CA         2.2840   34.0590   36.7350 C.3     5  PRO5        0.1402
     22  C          1.1570   35.0550   36.6010 C.2     5  PRO5        0.2269
     23  O          1.3740   36.1740   36.1260 O.2     5  PRO5       -0.2865
     24  CB         2.9990   34.1920   38.0730 C.3     5  PRO5        0.0296
     25  CG         4.0210   35.2250   37.7910 C.3     5  PRO5        0.0237
     26  CD         4.5690   34.7510   36.4740 C.3     5  PRO5        0.0939
     27  N          0.1640   31.8050   42.2530 N.3    10  GLU10      -0.1231
     28  CA         1.1350   31.3970   41.2600 C.3    10  GLU10       0.1699
     29  C          2.4450   32.1610   41.4220 C.2    10  GLU10       0.2592
     30  O          3.4510   31.8180   40.7980 O.2    10  GLU10      -0.2718
     31  CB         0.5760   31.6210   39.8550 C.3    10  GLU10       0.0402
     32  CG        -0.6130   30.7490   39.5320 C.3    10  GLU10       0.1161
     33  CD        -1.0780   30.8900   38.0950 C.2    10  GLU10       0.3649
     34  OE1       -2.0600   30.2030   37.7250 O.co2  10  GLU10      -0.2457
     35  OE2       -0.4660   31.6800   37.3380 O.co2  10  GLU10      -0.2457
     36  N          2.4360   33.1990   42.2530 N.am   11  TYR11      -0.1962
     37  CA         3.6350   33.9950   42.4770 C.3    11  TYR11       0.1771
     38  C          4.5490   33.2780   43.4780 C.2    11  TYR11       0.2619
     39  O          4.1210   32.9010   44.5670 O.2    11  TYR11      -0.2715
     40  CB         3.2490   35.3690   43.0080 C.3    11  TYR11       0.0574
     41  CG         4.3710   36.3830   42.9830 C.ar   11  TYR11      -0.0198
     42  CD1        4.7300   37.0230   41.8000 C.ar   11  TYR11      -0.0009
     43  CD2        5.0700   36.7120   44.1460 C.ar   11  TYR11      -0.0009
     44  CE1        5.7560   37.9710   41.7730 C.ar   11  TYR11       0.0417
     45  CE2        6.1010   37.6540   44.1240 C.ar   11  TYR11       0.0417
     46  CZ         6.4370   38.2810   42.9350 C.ar   11  TYR11       0.1957
     47  OH         7.4500   39.2170   42.9080 O.3    11  TYR11      -0.2866
     48  N          5.8110   33.1060   43.0990 N.am   12  ILE12      -0.1977
     49  CA         6.8020   32.4110   43.9190 C.3    12  ILE12       0.1596
     50  C          7.5120   33.2570   44.9670 C.2    12  ILE12       0.2287
     51  O          7.9070   34.3910   44.7030 O.2    12  ILE12      -0.2864
     52  CB         7.8970   31.7870   43.0270 C.3    12  ILE12       0.0276
     53  CG1        7.2890   30.7050   42.1400 C.3    12  ILE12       0.0022
     54  CG2        9.0330   31.2430   43.8810 C.3    12  ILE12       0.0022
     55  CD1        8.2830   30.0690   41.1760 C.3    12  ILE12       0.0001
     56  N         15.8850   42.8440   39.7000 N.3    45  GLY45      -0.1225
     57  CA        15.6410   41.4680   39.3280 C.3    45  GLY45       0.1811
     58  C         14.8210   40.6370   40.2780 C.2    45  GLY45       0.2280
     59  O         14.7420   39.4270   40.1050 O.2    45  GLY45      -0.2866
     60  N         11.6200   40.7760   40.5970 N.3    47  GLY47      -0.1210
     61  CA        10.2730   40.5830   40.0920 C.3    47  GLY47       0.1956
     62  C          9.1950   41.5290   40.5880 C.2    47  GLY47       0.2612
     63  O          8.0730   41.0890   40.8240 O.2    47  GLY47      -0.2717
     64  N          9.5100   42.8170   40.7340 N.am   48  LYS48      -0.1965
     65  CA         8.5170   43.7910   41.2010 C.3    48  LYS48       0.1728
     66  C          7.4060   43.9360   40.1690 C.2    48  LYS48       0.2617
     67  O          6.2420   43.6720   40.4480 O.2    48  LYS48      -0.2715
     68  CB         9.1720   45.1420   41.4620 C.3    48  LYS48       0.0311
     69  CG        10.1780   45.1350   42.6050 C.3    48  LYS48       0.0038
     70  CD        10.9360   46.4590   42.6650 C.3    48  LYS48       0.0206
     71  CE        11.7720   46.6010   43.9250 C.3    48  LYS48       0.1093
     72  NZ        12.2140   48.0170   44.0880 N.3    48  LYS48      -0.1314
     73  N          7.7610   44.3440   38.9660 N.am   49  THR49      -0.1937
     74  CA         6.7520   44.4680   37.9360 C.3    49  THR49       0.2028
     75  C          5.8380   43.2390   37.7970 C.2    49  THR49       0.2642
     76  O          4.6680   43.3850   37.4300 O.2    49  THR49      -0.2714
     77  CB         7.3820   44.7480   36.5810 C.3    49  THR49       0.1808
     78  OG1        7.9070   46.0750   36.5790 O.3    49  THR49      -0.2208
     79  CG2        6.3530   44.6210   35.4780 C.3    49  THR49       0.0379
     80  N          6.3330   42.0330   38.0650 N.am   50  THR50      -0.1950
     81  CA         5.4360   40.8900   37.9360 C.3    50  THR50       0.1897
     82  C          4.3810   40.9730   39.0330 C.2    50  THR50       0.2313
     83  O          3.2000   40.7010   38.8030 O.2    50  THR50      -0.2863
     84  CB         6.1880   39.5440   38.0100 C.3    50  THR50       0.1794
     85  OG1        6.9560   39.3850   36.8160 O.3    50  THR50      -0.2208
     86  CG2        5.2150   38.3590   38.1200 C.3    50  THR50       0.0378
     87  N          2.1140   51.5100   37.1460 N.3    92  PHE92      -0.1241
     88  CA         3.3110   51.1110   37.8520 C.3    92  PHE92       0.1605
     89  C          4.4500   51.9710   37.3340 C.2    92  PHE92       0.2264
     90  O          4.5850   52.1480   36.1230 O.2    92  PHE92      -0.2867
     91  CB         3.5690   49.6210   37.5970 C.3    92  PHE92       0.0534
     92  CG         4.9340   49.1420   38.0360 C.ar   92  PHE92      -0.0203
     93  CD1        6.0720   49.4380   37.2930 C.ar   92  PHE92      -0.0042
     94  CD2        5.0830   48.3870   39.1930 C.ar   92  PHE92      -0.0042
     95  CE1        7.3300   48.9920   37.6990 C.ar   92  PHE92      -0.0003
     96  CE2        6.3410   47.9370   39.5990 C.ar   92  PHE92      -0.0003
     97  CZ         7.4590   48.2430   38.8500 C.ar   92  PHE92      -0.0000
     98  N          8.5950   52.4010   37.4660 N.3    94  ASP94      -0.1239
     99  CA         9.9030   51.8650   37.8210 C.3    94  ASP94       0.1674
    100  C         10.8820   53.0280   38.0550 C.2    94  ASP94       0.2266
    101  O         10.6780   54.1280   37.5420 O.2    94  ASP94      -0.2867
    102  CB        10.4090   50.9840   36.6800 C.3    94  ASP94       0.1410
    103  CG        11.5770   50.1130   37.0840 C.2    94  ASP94       0.3668
    104  OD1       12.2300   49.5370   36.1940 O.co2  94  ASP94      -0.2456
    105  OD2       11.8420   49.9940   38.2940 O.co2  94  ASP94      -0.2456
    106  N         15.6470   35.7820   46.6170 N.3   165  TYR165     -0.1241
    107  CA        15.0070   34.4730   46.7010 C.3   165  TYR165      0.1605
    108  C         15.9960   33.3880   47.0810 C.2   165  TYR165      0.2264
    109  O         17.1680   33.4430   46.6880 O.2   165  TYR165     -0.2867
    110  CB        14.3930   34.0630   45.3650 C.3   165  TYR165      0.0534
    111  CG        13.3010   34.9540   44.8620 C.ar  165  TYR165     -0.0201
    112  CD1       13.5820   36.0290   44.0310 C.ar  165  TYR165     -0.0009
    113  CD2       11.9800   34.7160   45.2050 C.ar  165  TYR165     -0.0009
    114  CE1       12.5710   36.8420   43.5510 C.ar  165  TYR165      0.0417
    115  CE2       10.9680   35.5240   44.7320 C.ar  165  TYR165      0.0417
    116  CZ        11.2750   36.5810   43.9080 C.ar  165  TYR165      0.1957
    117  OH        10.2740   37.3800   43.4500 O.3   165  TYR165     -0.2866
    118  N          9.1120   24.9130   37.2370 N.3   176  ARG176     -0.1231
    119  CA         7.7770   25.2600   36.7510 C.3   176  ARG176      0.1694
    120  C          7.9050   26.4510   35.8170 C.2   176  ARG176      0.2592
    121  O          7.3820   27.5320   36.0800 O.2   176  ARG176     -0.2718
    122  CB         6.8710   25.6160   37.9320 C.3   176  ARG176      0.0321
    123  CG         5.4330   25.9410   37.5620 C.3   176  ARG176      0.0489
    124  CD         4.6010   26.1840   38.8100 C.3   176  ARG176      0.2205
    125  NE         5.0450   27.3600   39.5540 N.pl3 176  ARG176     -0.0865
    126  CZ         4.6590   27.6450   40.7930 C.cat 176  ARG176      0.5346
    127  NH1        3.8240   26.8390   41.4350 N.pl3 176  ARG176      0.1354
    128  NH2        5.0990   28.7420   41.3890 N.pl3 176  ARG176      0.1354
    129  N          8.6130   26.2320   34.7200 N.am  177  ASP177     -0.1974
    130  CA         8.8660   27.2590   33.7270 C.3   177  ASP177      0.1709
    131  C          9.4230   26.4840   32.5490 C.2   177  ASP177      0.2293
    132  O          9.3510   26.9140   31.4000 O.2   177  ASP177     -0.2864
    133  CB         9.9050   28.2460   34.2680 C.3   177  ASP177      0.1436
    134  CG        10.1740   29.3980   33.3240 C.2   177  ASP177      0.3671
    135  OD1       10.7640   29.1590   32.2500 O.co2 177  ASP177     -0.2456
    136  OD2        9.7970   30.5430   33.6610 O.co2 177  ASP177     -0.2456
    137  N         15.6220   36.5590   40.5690 N.3   201  MET201     -0.1230
    138  CA        14.9140   35.8180   39.5450 C.3   201  MET201      0.1702
    139  C         15.3470   36.1350   38.1240 C.2   201  MET201      0.2592
    140  O         15.2460   35.2830   37.2540 O.2   201  MET201     -0.2718
    141  CB        13.4180   36.0650   39.6920 C.3   201  MET201      0.0401
    142  CG        12.5430   35.0880   38.9490 C.3   201  MET201      0.0596
    143  SD        12.3960   33.4790   39.7550 S.3   201  MET201     -0.1393
    144  CE        11.5230   33.9480   41.2740 C.3   201  MET201      0.0692
    145  N         15.8390   37.3470   37.8830 N.am  202  ARG202     -0.1980
    146  CA        16.2560   37.7450   36.5330 C.3   202  ARG202      0.1597
    147  C         17.4230   36.9270   36.0080 C.2   202  ARG202      0.2287
    148  O         17.3630   36.3780   34.9140 O.2   202  ARG202     -0.2864
    149  CB        16.6320   39.2270   36.4990 C.3   202  ARG202      0.0334
    150  CG        16.5160   39.8480   35.1250 C.3   202  ARG202      0.0492
    151  CD        16.9240   41.3030   35.1460 C.3   202  ARG202      0.2205
    152  NE        18.3690   41.4460   35.2730 N.pl3 202  ARG202     -0.0865
    153  CZ        19.2490   40.9620   34.3960 C.cat 202  ARG202      0.5346
    154  NH1       18.8300   40.2980   33.3210 N.pl3 202  ARG202      0.1354
    155  NH2       20.5510   41.1430   34.5930 N.pl3 202  ARG202      0.1354
    156  N         16.4570   33.0050   35.0680 N.3   205  LYS205     -0.1245
    157  CA        15.8660   32.7710   33.7670 C.3   205  LYS205      0.1561
    158  C         16.9420   32.9300   32.7100 C.2   205  LYS205      0.2260
    159  O         17.0330   32.1270   31.7810 O.2   205  LYS205     -0.2867
    160  CB        14.7440   33.7700   33.5220 C.3   205  LYS205      0.0271
    161  CG        13.7210   33.8150   34.6290 C.3   205  LYS205      0.0035
    162  CD        12.9750   32.5050   34.7910 C.3   205  LYS205      0.0206
    163  CE        11.9390   32.6180   35.9120 C.3   205  LYS205      0.1093
    164  NZ        11.0100   31.4470   36.0390 N.3   205  LYS205     -0.1314
@<TRIPOS>BOND
     1     1     2    1
     2     5     2    1
     3     5     6    1
     4     2     3    1
     5     7     6    1
     6     8     6    1
     7     3     4    2
     8     3     9   am
     9   132   131    2
    10   159   158    2
    11    18    17    1
    12     9    10    1
    13   135   134   ar
    14    19    17    1
    15   131   130    1
    16    17    16    2
    17   158   157    1
    18   154   153    1
    19   134   136   ar
    20   134   133    1
    21    10    13    1
    22    10    11    1
    23   160   157    1
    24   160   161    1
    25    14    13    1
    26    14    15    1
    27   130   133    1
    28   130   129    1
    29   157   156    1
    30    16    15    1
    31    12    11    2
    32   153   155    1
    33   153   152    2
    34    11    20   am
    35   161   162    1
    36   129   120   am
    37   162   163    1
    38   148   147    2
    39   150   151    1
    40   150   149    1
    41   151   152    1
    42    79    77    1
    43    20    26    1
    44    20    21    1
    45   120   121    2
    46   120   119    1
    47   163   164    1
    48   147   146    1
    49    90    89    2
    50    23    22    2
    51   104   103   ar
    52    26    25    1
    53   149   146    1
    54   146   145    1
    55    78    77    1
    56    77    74    1
    57    22    21    1
    58   102   103    1
    59   102    99    1
    60    21    24    1
    61   119   118    1
    62   119   122    1
    63    85    84    1
    64   103   105   ar
    65    87    88    1
    66   140   139    2
    67    93    95   ar
    68    93    92   ar
    69    89    88    1
    70    35    33   ar
    71    76    75    2
    72    98    99    1
    73   101   100    2
    74   123   122    1
    75   123   124    1
    76    91    88    1
    77    91    92    1
    78    95    97   ar
    79    34    33   ar
    80    25    24    1
    81    75    74    1
    82    75    80   am
    83    99   100    1
    84   145   139   am
    85    81    84    1
    86    81    80    1
    87    81    82    1
    88    74    73    1
    89    84    86    1
    90    92    94   ar
    91    33    32    1
    92   139   138    1
    93    83    82    2
    94   124   125    1
    95    97    96   ar
    96   142   141    1
    97   142   143    1
    98    73    66   am
    99    94    96   ar
   100    57    56    1
   101    57    58    1
   102    32    31    1
   103   138   141    1
   104   138   137    1
   105   125   126    2
   106   143   144    1
   107    31    28    1
   108    61    62    1
   109    61    60    1
   110    59    58    2
   111    66    67    2
   112    66    65    1
   113    62    64   am
   114    62    63    2
   115    64    65    1
   116   126   128    1
   117   126   127    1
   118    30    29    2
   119    55    53    1
   120    65    68    1
   121    28    29    1
   122    28    27    1
   123    29    36   am
   124    68    69    1
   125    44    42   ar
   126    44    46   ar
   127    42    41   ar
   128    53    52    1
   129    36    37    1
   130    37    40    1
   131    37    38    1
   132    69    70    1
   133    70    71    1
   134    47    46    1
   135    46    45   ar
   136    41    40    1
   137    41    43   ar
   138    52    54    1
   139    52    49    1
   140    48    38   am
   141    48    49    1
   142   117   116    1
   143    38    39    2
   144   114   116   ar
   145   114   112   ar
   146   116   115   ar
   147    49    50    1
   148    71    72    1
   149   112   111   ar
   150    45    43   ar
   151    51    50    2
   152   115   113   ar
   153   111   113   ar
   154   111   110    1
   155   110   107    1
   156   106   107    1
   157   109   108    2
   158   107   108    1
