@<TRIPOS>MOLECULE
tmp/1ixyE01.pdb
 103 100 0 0 0
SMALL
GASTEIGER

@<TRIPOS>ATOM
      1  N         43.4920   -9.7980   24.9920 N.3    25  TYR25      -0.1241
      2  CA        42.6010  -10.7280   25.6810 C.3    25  TYR25       0.1605
      3  C         41.7370  -11.4340   24.6460 C.2    25  TYR25       0.2264
      4  O         41.5820  -12.6520   24.6760 O.2    25  TYR25      -0.2867
      5  CB        41.6800   -9.9750   26.6470 C.3    25  TYR25       0.0534
      6  CG        42.1170   -9.9780   28.0940 C.ar   25  TYR25      -0.0201
      7  CD1       42.0360  -11.1350   28.8650 C.ar   25  TYR25      -0.0009
      8  CD2       42.5770   -8.8140   28.7040 C.ar   25  TYR25      -0.0009
      9  CE1       42.4000  -11.1310   30.2170 C.ar   25  TYR25       0.0417
     10  CE2       42.9440   -8.7980   30.0490 C.ar   25  TYR25       0.0417
     11  CZ        42.8520   -9.9590   30.7990 C.ar   25  TYR25       0.1957
     12  OH        43.2150   -9.9390   32.1240 O.3    25  TYR25      -0.2866
     13  N         36.5960  -12.4100   29.8340 N.3   166  LYS166     -0.1245
     14  CA        37.4840  -12.4150   30.9890 C.3   166  LYS166      0.1561
     15  C         37.2330  -13.6220   31.8900 C.2   166  LYS166      0.2260
     16  O         38.1730  -14.3060   32.3020 O.2   166  LYS166     -0.2867
     17  CB        37.3140  -11.1210   31.7800 C.3   166  LYS166      0.0271
     18  CG        38.5600  -10.6880   32.5130 C.3   166  LYS166      0.0035
     19  CD        38.5370   -9.1800   32.7560 C.3   166  LYS166      0.0206
     20  CE        39.8970   -8.6630   33.2200 C.3   166  LYS166      0.1093
     21  NZ        39.8850   -7.1810   33.4210 N.3   166  LYS166     -0.1314
     22  N         43.2430  -19.0880   32.6880 N.3   171  ASP171     -0.1225
     23  CA        43.8000  -18.7410   33.9940 C.3   171  ASP171      0.1805
     24  C         42.8850  -17.9360   34.9170 C.2   171  ASP171      0.2598
     25  O         43.3440  -17.4070   35.9210 O.2   171  ASP171     -0.2718
     26  CB        45.1280  -17.9810   33.8270 C.3   171  ASP171      0.1424
     27  CG        44.9650  -16.6230   33.1330 C.2   171  ASP171      0.3668
     28  OD1       43.8560  -16.0480   33.1340 O.co2 171  ASP171     -0.2456
     29  OD2       45.9670  -16.1100   32.5940 O.co2 171  ASP171     -0.2456
     30  N         41.6020  -17.8450   34.5980 N.am  172  PHE172     -0.1962
     31  CA        40.6890  -17.0760   35.4400 C.3   172  PHE172      0.1771
     32  C         40.4250  -17.6480   36.8280 C.2   172  PHE172      0.2619
     33  O         40.1550  -18.8390   36.9790 O.2   172  PHE172     -0.2715
     34  CB        39.3410  -16.8820   34.7390 C.3   172  PHE172      0.0574
     35  CG        38.2580  -16.3450   35.6410 C.ar  172  PHE172     -0.0200
     36  CD1       37.6150  -17.1780   36.5620 C.ar  172  PHE172     -0.0042
     37  CD2       37.8770  -15.0130   35.5700 C.ar  172  PHE172     -0.0042
     38  CE1       36.6040  -16.6910   37.3980 C.ar  172  PHE172     -0.0003
     39  CE2       36.8720  -14.5130   36.3960 C.ar  172  PHE172     -0.0003
     40  CZ        36.2320  -15.3560   37.3130 C.ar  172  PHE172     -0.0000
     41  N         40.4790  -16.7720   37.8290 N.am  173  GLN173     -0.1963
     42  CA        40.2040  -17.1380   39.2170 C.3   173  GLN173      0.1733
     43  C         39.4870  -16.0000   39.9430 C.2   173  GLN173      0.2616
     44  O         39.7550  -14.8210   39.6960 O.2   173  GLN173     -0.2715
     45  CB        41.4970  -17.4650   39.9780 C.3   173  GLN173      0.0408
     46  CG        42.1020  -18.8250   39.6640 C.3   173  GLN173      0.0908
     47  CD        43.3450  -19.1220   40.4840 C.2   173  GLN173      0.2608
     48  OE1       43.2630  -19.6340   41.6030 O.2   173  GLN173     -0.2717
     49  NE2       44.5060  -18.7880   39.9340 N.am  173  GLN173     -0.0878
     50  N         38.5640  -16.3590   40.8290 N.am  174  LEU174     -0.1963
     51  CA        37.8530  -15.3600   41.6160 C.3   174  LEU174      0.1728
     52  C         38.9040  -14.7820   42.5540 C.2   174  LEU174      0.2617
     53  O         39.9060  -15.4400   42.8450 O.2   174  LEU174     -0.2715
     54  CB        36.7350  -16.0120   42.4390 C.3   174  LEU174      0.0311
     55  CG        35.5430  -16.6490   41.7220 C.3   174  LEU174      0.0022
     56  CD1       34.7200  -17.4410   42.7160 C.3   174  LEU174      0.0001
     57  CD2       34.6930  -15.5670   41.0620 C.3   174  LEU174      0.0001
     58  N         38.6920  -13.5570   43.0180 N.am  175  SER175     -0.1936
     59  CA        39.6320  -12.9120   43.9370 C.3   175  SER175      0.2055
     60  C         39.5220  -13.5060   45.3490 C.2   175  SER175      0.2642
     61  O         38.4520  -13.9280   45.7720 O.2   175  SER175     -0.2714
     62  CB        39.3380  -11.4190   44.0090 C.3   175  SER175      0.2130
     63  OG        39.1490  -10.8850   42.7170 O.3   175  SER175     -0.2179
     64  N         40.6330  -13.5420   46.0710 N.am  176  LYS176     -0.1977
     65  CA        40.6320  -14.0530   47.4370 C.3   176  LYS176      0.1596
     66  C         40.2210  -12.9530   48.4270 C.2   176  LYS176      0.2287
     67  O         40.2280  -11.7670   48.0940 O.2   176  LYS176     -0.2864
     68  CB        42.0240  -14.5710   47.8000 C.3   176  LYS176      0.0298
     69  CG        42.3400  -15.9650   47.2810 C.3   176  LYS176      0.0038
     70  CD        42.3000  -16.0200   45.7790 C.3   176  LYS176      0.0206
     71  CE        42.6420  -17.4000   45.2510 C.3   176  LYS176      0.1093
     72  NZ        42.5100  -17.4440   43.7570 N.3   176  LYS176     -0.1314
     73  N         44.4840   -6.2080   33.4410 N.3   241  ASN241     -0.1225
     74  CA        44.6150   -7.5080   34.0790 C.3   241  ASN241      0.1785
     75  C         44.5780   -7.4580   35.6070 C.2   241  ASN241      0.2597
     76  O         44.5680   -8.5040   36.2590 O.2   241  ASN241     -0.2718
     77  CB        45.8980   -8.2090   33.6120 C.3   241  ASN241      0.1169
     78  CG        47.1530   -7.4810   34.0370 C.2   241  ASN241      0.2627
     79  OD1       47.4550   -6.4050   33.5370 O.2   241  ASN241     -0.2716
     80  ND2       47.8930   -8.0660   34.9690 N.am  241  ASN241     -0.0877
     81  N         44.5440   -6.2520   36.1730 N.am  242  MET242     -0.1979
     82  CA        44.5040   -6.0810   37.6260 C.3   242  MET242      0.1605
     83  C         43.1960   -5.4770   38.1800 C.2   242  MET242      0.2287
     84  O         42.9540   -5.4790   39.3900 O.2   242  MET242     -0.2864
     85  CB        45.6910   -5.2260   38.0680 C.3   242  MET242      0.0413
     86  CG        47.0240   -5.9430   37.9890 C.3   242  MET242      0.0598
     87  SD        47.1310   -7.3200   39.1650 S.3   242  MET242     -0.1393
     88  CE        46.7140   -8.7390   38.1020 C.3   242  MET242      0.0692
     89  N         40.0360   -6.3490   38.6360 N.3   244  SER244     -0.1202
     90  CA        39.3320   -7.1030   39.6640 C.3   244  SER244      0.2020
     91  C         40.0620   -7.1240   41.0060 C.2   244  SER244      0.2618
     92  O         39.4230   -7.1930   42.0440 O.2   244  SER244     -0.2717
     93  CB        39.0600   -8.5350   39.1950 C.3   244  SER244      0.2103
     94  OG        37.8860   -8.6000   38.4070 O.3   244  SER244     -0.2182
     95  N         41.3890   -7.0680   41.0040 N.am  245  GLU245     -0.1979
     96  CA        42.0930   -7.0560   42.2800 C.3   245  GLU245      0.1602
     97  C         41.9310   -5.6820   42.8970 C.2   245  GLU245      0.2287
     98  O         41.8790   -5.5460   44.1260 O.2   245  GLU245     -0.2864
     99  CB        43.5810   -7.3590   42.1180 C.3   245  GLU245      0.0415
    100  CG        43.8950   -8.7670   41.6780 C.3   245  GLU245      0.1163
    101  CD        43.3460   -9.8190   42.6130 C.2   245  GLU245      0.3649
    102  OE1       42.2960  -10.3990   42.2990 O.co2 245  GLU245     -0.2457
    103  OE2       43.9660  -10.0680   43.6620 O.co2 245  GLU245     -0.2457
@<TRIPOS>BOND
     1     3     4    2
     2     3     2    1
     3     1     2    1
     4     2     5    1
     5     5     6    1
     6     6     8   ar
     7     6     7   ar
     8     8    10   ar
     9     7     9   ar
    10    13    14    1
    11    10    11   ar
    12     9    11   ar
    13    11    12    1
    14    14    17    1
    15    14    15    1
    16    17    18    1
    17    15    16    2
    18    18    19    1
    19    29    27   ar
    20    22    23    1
    21    19    20    1
    22    27    28   ar
    23    27    26    1
    24    20    21    1
    25    73    74    1
    26    79    78    2
    27    77    78    1
    28    77    74    1
    29    26    23    1
    30    23    24    1
    31    78    80   am
    32    74    75    1
    33    30    24   am
    34    30    31    1
    35    34    31    1
    36    34    35    1
    37    24    25    2
    38    31    32    1
    39    37    35   ar
    40    37    39   ar
    41    75    81   am
    42    75    76    2
    43    35    36   ar
    44    81    82    1
    45    39    40   ar
    46    36    38   ar
    47    32    33    2
    48    32    41   am
    49    40    38   ar
    50    82    85    1
    51    82    83    1
    52    41    42    1
    53    86    85    1
    54    86    87    1
    55    88    87    1
    56    83    84    2
    57    94    93    1
    58    89    90    1
    59    93    90    1
    60    42    43    1
    61    42    45    1
    62    46    45    1
    63    46    47    1
    64    90    91    1
    65    44    43    2
    66    49    47   am
    67    43    50   am
    68    47    48    2
    69    50    51    1
    70    95    91   am
    71    95    96    1
    72    91    92    2
    73    57    55    1
    74    51    54    1
    75    51    52    1
    76   100    99    1
    77   100   101    1
    78    55    54    1
    79    55    56    1
    80    99    96    1
    81    96    97    1
    82   102   101   ar
    83    52    53    2
    84    52    58   am
    85   101   103   ar
    86    63    62    1
    87    97    98    2
    88    58    59    1
    89    72    71    1
    90    59    62    1
    91    59    60    1
    92    71    70    1
    93    60    61    2
    94    60    64   am
    95    70    69    1
    96    64    65    1
    97    69    68    1
    98    65    68    1
    99    65    66    1
   100    67    66    2
