@<TRIPOS>MOLECULE
tmp/1iy0A00.pdb
 147 140 0 0 0
SMALL
GASTEIGER

@<TRIPOS>ATOM
      1  N         45.5720   31.8580   55.6090 N.3    10  ASP10      -0.1225
      2  CA        45.8790   30.5160   56.0850 C.3    10  ASP10       0.1805
      3  C         45.0800   29.4320   55.3550 C.2    10  ASP10       0.2598
      4  O         44.9990   28.2920   55.8210 O.2    10  ASP10      -0.2718
      5  CB        45.5730   30.4390   57.5800 C.3    10  ASP10       0.1424
      6  CG        45.8190   31.7550   58.2890 C.2    10  ASP10       0.3668
      7  OD1       45.4140   31.8860   59.4680 O.co2  10  ASP10      -0.2456
      8  OD2       46.4210   32.6580   57.6640 O.co2  10  ASP10      -0.2456
      9  N         44.4840   29.7820   54.2220 N.am   11  VAL11      -0.1966
     10  CA        43.6940   28.8250   53.4680 C.3    11  VAL11       0.1727
     11  C         44.2710   28.6350   52.0690 C.2    11  VAL11       0.2616
     12  O         44.0110   29.4200   51.1560 O.2    11  VAL11      -0.2715
     13  CB        42.2230   29.2940   53.3990 C.3    11  VAL11       0.0290
     14  CG1       41.4040   28.3890   52.4860 C.3    11  VAL11       0.0023
     15  CG2       41.6430   29.3020   54.7950 C.3    11  VAL11       0.0023
     16  N         45.0590   27.5820   51.9040 N.am   12  ALA12      -0.1977
     17  CA        45.6850   27.3160   50.6210 C.3    12  ALA12       0.1597
     18  C         44.6870   26.9060   49.5550 C.2    12  ALA12       0.2287
     19  O         44.0220   25.8650   49.6630 O.2    12  ALA12      -0.2864
     20  CB        46.7510   26.2480   50.7730 C.3    12  ALA12       0.0319
     21  N         41.3240   27.4360   47.0170 N.3    14  ALA14      -0.1245
     22  CA        39.9470   27.9000   47.1350 C.3    14  ALA14       0.1562
     23  C         39.8370   29.3800   46.7710 C.2    14  ALA14       0.2260
     24  O         39.1520   30.1540   47.4460 O.2    14  ALA14      -0.2867
     25  CB        39.4460   27.6670   48.5510 C.3    14  ALA14       0.0290
     26  N         34.3340   15.1300   51.5750 N.3    51  PRO51      -0.2102
     27  CA        34.8800   15.1210   52.9360 C.3    51  PRO51       0.1504
     28  C         36.4050   15.2690   52.9670 C.2    51  PRO51       0.2576
     29  O         37.1220   14.5810   52.2370 O.2    51  PRO51      -0.2718
     30  CB        34.4430   13.7620   53.4670 C.3    51  PRO51       0.0282
     31  CG        33.1450   13.5420   52.7720 C.3    51  PRO51       0.0208
     32  CD        33.4290   13.9900   51.3600 C.3    51  PRO51       0.0893
     33  N         36.8960   16.1690   53.8120 N.am   52  GLY52      -0.1943
     34  CA        38.3330   16.3560   53.9460 C.3    52  GLY52       0.2014
     35  C         39.0060   17.3570   53.0260 C.2    52  GLY52       0.2639
     36  O         40.1180   17.1160   52.5480 O.2    52  GLY52      -0.2714
     37  N         38.3460   18.4840   52.7820 N.am   53  VAL53      -0.1963
     38  CA        38.9080   19.5180   51.9220 C.3    53  VAL53       0.1727
     39  C         39.0820   20.8290   52.7120 C.2    53  VAL53       0.2617
     40  O         39.5600   21.8390   52.1920 O.2    53  VAL53      -0.2715
     41  CB        38.0120   19.7210   50.6790 C.3    53  VAL53       0.0290
     42  CG1       38.5730   20.8110   49.8100 C.3    53  VAL53       0.0023
     43  CG2       37.9340   18.4230   49.8830 C.3    53  VAL53       0.0023
     44  N         38.7140   20.7780   53.9910 N.am   54  GLY54      -0.1940
     45  CA        38.8340   21.9340   54.8600 C.3    54  GLY54       0.2014
     46  C         37.7350   22.9540   54.6570 C.2    54  GLY54       0.2639
     47  O         38.0120   24.1440   54.4980 O.2    54  GLY54      -0.2714
     48  N         36.4880   22.4800   54.6620 N.am   55  LYS55      -0.1963
     49  CA        35.3140   23.3350   54.4850 C.3    55  LYS55       0.1728
     50  C         35.0410   24.1120   55.7760 C.2    55  LYS55       0.2617
     51  O         34.6960   25.2950   55.7390 O.2    55  LYS55      -0.2715
     52  CB        34.0970   22.4880   54.0750 C.3    55  LYS55       0.0311
     53  CG        34.2570   21.8130   52.7200 C.3    55  LYS55       0.0038
     54  CD        32.9540   21.2280   52.2230 C.3    55  LYS55       0.0206
     55  CE        32.3840   20.1690   53.1720 C.3    55  LYS55       0.1093
     56  NZ        32.7550   18.7430   52.8440 N.3    55  LYS55      -0.1314
     57  N         35.2160   23.4430   56.9140 N.am   56  THR56      -0.1937
     58  CA        35.0270   24.0720   58.2160 C.3    56  THR56       0.2028
     59  C         36.1390   25.0810   58.4590 C.2    56  THR56       0.2642
     60  O         35.9360   26.0690   59.1490 O.2    56  THR56      -0.2714
     61  CB        35.1000   23.0640   59.3450 C.3    56  THR56       0.1808
     62  OG1       34.2030   21.9830   59.0850 O.3    56  THR56      -0.2208
     63  CG2       34.7260   23.7210   60.6430 C.3    56  THR56       0.0379
     64  N         37.3180   24.8140   57.8990 N.am   57  HIS57      -0.1973
     65  CA        38.4870   25.6780   58.0390 C.3    57  HIS57       0.1656
     66  C         38.2020   27.0130   57.3480 C.2    57  HIS57       0.2291
     67  O         38.4040   28.0870   57.9170 O.2    57  HIS57      -0.2864
     68  CB        39.7090   24.9780   57.4080 C.3    57  HIS57       0.0771
     69  CG        41.0060   25.7190   57.5780 C.ar   57  HIS57       0.0820
     70  ND1       41.5310   26.0400   58.8140 N.ar   57  HIS57      -0.2267
     71  CD2       41.8890   26.1900   56.6610 C.ar   57  HIS57       0.1154
     72  CE1       42.6780   26.6770   58.6500 C.ar   57  HIS57       0.1986
     73  NE2       42.9190   26.7810   57.3540 N.ar   57  HIS57      -0.2212
     74  N         35.5300   28.8350   59.1970 N.3    60  ARG60      -0.1245
     75  CA        36.1390   29.4480   60.3670 C.3    60  ARG60       0.1563
     76  C         37.0040   30.6180   59.9170 C.2    60  ARG60       0.2260
     77  O         37.2190   31.5800   60.6590 O.2    60  ARG60      -0.2867
     78  CB        36.9790   28.4040   61.1150 C.3    60  ARG60       0.0307
     79  CG        37.4930   28.8600   62.4670 C.3    60  ARG60       0.0489
     80  CD        38.0280   27.6900   63.2850 C.3    60  ARG60       0.2205
     81  NE        36.9690   26.8950   63.9160 N.pl3  60  ARG60      -0.0865
     82  CZ        36.7810   25.5870   63.7280 C.cat  60  ARG60       0.5346
     83  NH1       37.5740   24.8980   62.9130 N.pl3  60  ARG60       0.1354
     84  NH2       35.8070   24.9590   64.3770 N.pl3  60  ARG60       0.1354
     85  N         27.6290   21.9680   61.7460 N.3   108  ASP108     -0.1239
     86  CA        28.4220   20.8830   61.1920 C.3   108  ASP108      0.1674
     87  C         27.5060   19.7020   60.8720 C.2   108  ASP108      0.2266
     88  O         26.5000   19.4820   61.5480 O.2   108  ASP108     -0.2867
     89  CB        29.5250   20.4840   62.1880 C.3   108  ASP108      0.1410
     90  CG        30.6350   19.6540   61.5440 C.2   108  ASP108      0.3668
     91  OD1       30.8490   19.7890   60.3170 O.co2 108  ASP108     -0.2456
     92  OD2       31.3020   18.8780   62.2690 O.co2 108  ASP108     -0.2456
     93  N         27.9950   22.6740   55.8320 N.3   146  ALA146     -0.1245
     94  CA        28.8350   21.9750   54.8750 C.3   146  ALA146      0.1562
     95  C         28.2590   20.6340   54.4970 C.2   146  ALA146      0.2260
     96  O         27.7100   19.9290   55.3400 O.2   146  ALA146     -0.2867
     97  CB        30.2400   21.8040   55.4410 C.3   146  ALA146      0.0290
     98  N         42.2650   19.9900   47.9410 N.3   172  PRO172     -0.2116
     99  CA        43.3440   20.9680   48.1180 C.3   172  PRO172      0.1372
    100  C         44.5050   20.9190   47.1150 C.2   172  PRO172      0.2244
    101  O         44.8420   19.8550   46.5860 O.2   172  PRO172     -0.2868
    102  CB        43.7920   20.7150   49.5580 C.3   172  PRO172      0.0268
    103  CG        43.5400   19.2610   49.7360 C.3   172  PRO172      0.0207
    104  CD        42.1960   19.0730   49.0950 C.3   172  PRO172      0.0892
    105  N         47.7130   23.1920   50.0510 N.3   176  GLY176     -0.1225
    106  CA        46.6760   22.7460   50.9590 C.3   176  GLY176      0.1811
    107  C         47.0580   21.3650   51.4300 C.2   176  GLY176      0.2280
    108  O         46.8070   21.0100   52.5810 O.2   176  GLY176     -0.2866
    109  N         50.0460   21.3810   53.9120 N.3   179  GLN179     -0.1231
    110  CA        49.5390   21.8030   55.2260 C.3   179  GLN179      0.1698
    111  C         48.8780   20.6840   56.0290 C.2   179  GLN179      0.2592
    112  O         49.2180   20.4430   57.1940 O.2   179  GLN179     -0.2718
    113  CB        48.5280   22.9320   55.0710 C.3   179  GLN179      0.0381
    114  CG        49.1420   24.2640   54.6850 C.3   179  GLN179      0.0905
    115  CD        49.9960   24.8600   55.8010 C.2   179  GLN179      0.2608
    116  OE1       50.1120   26.0890   55.9280 O.2   179  GLN179     -0.2717
    117  NE2       50.6130   23.9910   56.6110 N.am  179  GLN179     -0.0878
    118  N         47.9190   20.0060   55.4120 N.am  180  ILE180     -0.1980
    119  CA        47.2350   18.9300   56.0930 C.3   180  ILE180      0.1595
    120  C         48.2660   17.9160   56.5730 C.2   180  ILE180      0.2287
    121  O         48.1860   17.4460   57.6940 O.2   180  ILE180     -0.2864
    122  CB        46.2400   18.2600   55.1570 C.3   180  ILE180      0.0276
    123  CG1       45.1910   19.2920   54.6980 C.3   180  ILE180      0.0022
    124  CG2       45.6880   17.0230   55.8390 C.3   180  ILE180      0.0022
    125  CD1       44.3610   18.8400   53.5030 C.3   180  ILE180      0.0001
    126  N         50.3260   18.8690   59.5240 N.3   183  ILE183     -0.1231
    127  CA        49.5040   18.8280   60.7220 C.3   183  ILE183      0.1692
    128  C         49.4850   17.4370   61.3280 C.2   183  ILE183      0.2592
    129  O         50.0540   17.2240   62.4010 O.2   183  ILE183     -0.2718
    130  CB        48.0780   19.3120   60.4040 C.3   183  ILE183      0.0266
    131  CG1       48.0090   20.8220   60.5990 C.3   183  ILE183      0.0019
    132  CG2       47.0770   18.6180   61.2720 C.3   183  ILE183      0.0020
    133  CD1       46.6390   21.3790   60.3810 C.3   183  ILE183      0.0001
    134  N         48.8430   16.5010   60.6280 N.am  184  HIS184     -0.1976
    135  CA        48.7450   15.1140   61.0760 C.3   184  HIS184      0.1656
    136  C         50.1090   14.5260   61.4310 C.2   184  HIS184      0.2291
    137  O         50.2100   13.6790   62.3170 O.2   184  HIS184     -0.2864
    138  CB        48.0920   14.2340   59.9980 C.3   184  HIS184      0.0771
    139  CG        46.6520   14.5530   59.7420 C.ar  184  HIS184      0.0820
    140  ND1       45.7160   14.6230   60.7510 N.ar  184  HIS184     -0.2267
    141  CD2       45.9930   14.8390   58.5920 C.ar  184  HIS184      0.1154
    142  CE1       44.5440   14.9440   60.2310 C.ar  184  HIS184      0.1986
    143  NE2       44.6840   15.0810   58.9250 N.ar  184  HIS184     -0.2212
    144  N         41.9770   15.3900   52.5820 N.3   208  GLY208     -0.1225
    145  CA        42.5330   15.2650   53.9260 C.3   208  GLY208      0.1811
    146  C         42.4560   13.8790   54.5530 C.2   208  GLY208      0.2280
    147  O         43.1680   13.5700   55.5090 O.2   208  GLY208     -0.2866
@<TRIPOS>BOND
     1   101   100    2
     2    23    22    1
     3    23    24    2
     4    21    22    1
     5   100    99    1
     6    22    25    1
     7    98    99    1
     8    98   104    1
     9    99   102    1
    10   104   103    1
    11    18    19    2
    12    18    17    1
    13   102   103    1
    14    42    41    1
    15    43    41    1
    16   105   106    1
    17    17    20    1
    18    17    16    1
    19    41    38    1
    20   106   107    1
    21    12    11    2
    22    32    26    1
    23    32    31    1
    24   107   108    2
    25    26    27    1
    26    16    11   am
    27    38    39    1
    28    38    37    1
    29    11    10    1
    30    40    39    2
    31    54    53    1
    32    54    55    1
    33    29    28    2
    34    14    13    1
    35    36    35    2
    36   144   145    1
    37    39    44   am
    38    53    52    1
    39    31    30    1
    40    37    35   am
    41    56    55    1
    42    27    28    1
    43    27    30    1
    44    28    33   am
    45    35    34    1
    46    13    10    1
    47    13    15    1
    48    10     9    1
    49   125   123    1
    50    33    34    1
    51   109   110    1
    52   145   146    1
    53    44    45    1
    54    52    49    1
    55     9     3   am
    56    49    48    1
    57    49    50    1
    58    95    94    1
    59    95    96    2
    60    47    46    2
    61   146   147    2
    62    46    48   am
    63    46    45    1
    64   114   113    1
    65   114   115    1
    66   123   122    1
    67    94    97    1
    68    94    93    1
    69   113   110    1
    70   122   124    1
    71   122   119    1
    72   110   111    1
    73     3     4    2
    74     3     2    1
    75   118   111   am
    76   118   119    1
    77     1     2    1
    78    51    50    2
    79    50    57   am
    80   115   116    2
    81   115   117   am
    82   111   112    2
    83     2     5    1
    84   119   120    1
    85   120   121    2
    86    71    73   ar
    87    71    69   ar
    88    57    58    1
    89    66    67    2
    90    66    65    1
    91    73    72   ar
    92    68    69    1
    93    68    65    1
    94    69    70   ar
    95     5     6    1
    96     8     6   ar
    97    64    65    1
    98    64    59   am
    99    58    59    1
   100    58    61    1
   101     6     7   ar
   102    59    60    2
   103   141   143   ar
   104   141   139   ar
   105    72    70   ar
   106   143   142   ar
   107    62    61    1
   108    74    75    1
   109    61    63    1
   110   126   127    1
   111   139   138    1
   112   139   140   ar
   113    76    75    1
   114    76    77    2
   115   138   135    1
   116   142   140   ar
   117    91    90   ar
   118    75    78    1
   119   133   131    1
   120   130   131    1
   121   130   127    1
   122   130   132    1
   123   134   135    1
   124   134   128   am
   125   127   128    1
   126    87    86    1
   127    87    88    2
   128   135   136    1
   129    78    79    1
   130    86    85    1
   131    86    89    1
   132   128   129    2
   133   136   137    2
   134    90    89    1
   135    90    92   ar
   136    79    80    1
   137    83    82    1
   138    80    81    1
   139    82    81    2
   140    82    84    1
