@<TRIPOS>MOLECULE
tmp/1iy7A00.pdb
 186 177 0 0 0
SMALL
GASTEIGER

@<TRIPOS>ATOM
      1  N          4.9900   -1.0010   18.1200 N.3    69  HIS69      -0.1241
      2  CA         4.3960   -1.6990   19.2690 C.3    69  HIS69       0.1621
      3  C          5.0620   -1.0060   20.4540 C.2    69  HIS69       0.2264
      4  O          6.2200   -1.2640   20.7620 O.2    69  HIS69      -0.2867
      5  CB         4.7580   -3.1860   19.2380 C.3    69  HIS69       0.0745
      6  CG         3.8930   -3.9930   18.3200 C.ar   69  HIS69       0.0817
      7  ND1        4.3090   -5.1740   17.7420 N.ar   69  HIS69      -0.2268
      8  CD2        2.6290   -3.7850   17.8810 C.ar   69  HIS69       0.1154
      9  CE1        3.3420   -5.6540   16.9810 C.ar   69  HIS69       0.1986
     10  NE2        2.3110   -4.8300   17.0490 N.ar   69  HIS69      -0.2212
     11  N          5.2210   -1.1420   23.7550 N.3    71  ARG71      -0.1231
     12  CA         5.8810   -1.7950   24.8860 C.3    71  ARG71       0.1694
     13  C          7.2970   -2.3030   24.6060 C.2    71  ARG71       0.2591
     14  O          8.0290   -2.6600   25.5290 O.2    71  ARG71      -0.2718
     15  CB         5.0240   -2.9610   25.3930 C.3    71  ARG71       0.0321
     16  CG         5.3980   -4.3180   24.8150 C.3    71  ARG71       0.0489
     17  CD         4.6190   -4.7070   23.5700 C.3    71  ARG71       0.2205
     18  NE         3.7870   -5.8850   23.8250 N.pl3  71  ARG71      -0.0865
     19  CZ         3.6010   -6.8830   22.9630 C.cat  71  ARG71       0.5346
     20  NH1        2.8220   -7.9060   23.2970 N.pl3  71  ARG71       0.1354
     21  NH2        4.1970   -6.8700   21.7730 N.pl3  71  ARG71       0.1354
     22  N          7.6850   -2.3270   23.3370 N.am   72  GLU72      -0.1979
     23  CA         8.9990   -2.8240   22.9620 C.3    72  GLU72       0.1602
     24  C         10.0460   -1.7140   23.0610 C.2    72  GLU72       0.2287
     25  O         10.6670   -1.3240   22.0720 O.2    72  GLU72      -0.2864
     26  CB         8.8980   -3.4380   21.5540 C.3    72  GLU72       0.0415
     27  CG         7.9210   -4.6380   21.5550 C.3    72  GLU72       0.1163
     28  CD         7.3510   -5.0090   20.1900 C.2    72  GLU72       0.3649
     29  OE1        6.3000   -5.6790   20.1700 O.co2  72  GLU72      -0.2457
     30  OE2        7.9340   -4.6460   19.1480 O.co2  72  GLU72      -0.2457
     31  N          0.3760   -2.5040   23.8660 N.3   127  ARG127     -0.1245
     32  CA         0.8610   -2.8240   22.5300 C.3   127  ARG127      0.1563
     33  C          0.2870   -1.9840   21.3900 C.2   127  ARG127      0.2260
     34  O          1.0190   -1.5520   20.4920 O.2   127  ARG127     -0.2867
     35  CB         0.5850   -4.3140   22.2800 C.3   127  ARG127      0.0307
     36  CG         0.7220   -4.8170   20.8510 C.3   127  ARG127      0.0489
     37  CD         0.0080   -6.1740   20.7320 C.3   127  ARG127      0.2205
     38  NE         0.0800   -6.7610   19.3950 N.pl3 127  ARG127     -0.0865
     39  CZ         1.1180   -7.4540   18.9330 C.cat 127  ARG127      0.5346
     40  NH1        2.1830   -7.6530   19.7010 N.pl3 127  ARG127      0.1354
     41  NH2        1.0960   -7.9500   17.7010 N.pl3 127  ARG127      0.1354
     42  N          0.4080   -3.0550   13.5250 N.3   144  ASN144     -0.1225
     43  CA         1.0800   -3.9580   12.5960 C.3   144  ASN144      0.1785
     44  C          0.1420   -5.0210   12.0310 C.2   144  ASN144      0.2597
     45  O          0.5700   -6.0990   11.6220 O.2   144  ASN144     -0.2718
     46  CB         2.3070   -4.6150   13.2460 C.3   144  ASN144      0.1169
     47  CG         3.2980   -5.1350   12.2120 C.2   144  ASN144      0.2627
     48  OD1        3.4480   -4.5530   11.1360 O.2   144  ASN144     -0.2716
     49  ND2        3.9880   -6.2200   12.5380 N.am  144  ASN144     -0.0877
     50  N         -1.1450   -4.6920   12.0100 N.am  145  ARG145     -0.1979
     51  CA        -2.1850   -5.5560   11.4610 C.3   145  ARG145      0.1597
     52  C         -3.1310   -4.6390   10.6930 C.2   145  ARG145      0.2287
     53  O         -4.1400   -5.0870   10.1480 O.2   145  ARG145     -0.2864
     54  CB        -2.9760   -6.2400   12.5820 C.3   145  ARG145      0.0334
     55  CG        -2.1920   -7.2360   13.4090 C.3   145  ARG145      0.0492
     56  CD        -1.8560   -8.4820   12.6010 C.3   145  ARG145      0.2205
     57  NE        -1.2380   -9.4930   13.4460 N.pl3 145  ARG145     -0.0865
     58  CZ        -0.0360   -9.3640   13.9950 C.cat 145  ARG145      0.5346
     59  NH1        0.6790   -8.2660   13.7770 N.pl3 145  ARG145      0.1354
     60  NH2        0.4410  -10.3270   14.7730 N.pl3 145  ARG145      0.1354
     61  N         11.1950   -4.4700   15.8800 N.3   196  HIS196     -0.1226
     62  CA        10.3780   -4.9780   16.9830 C.3   196  HIS196      0.1752
     63  C         11.2370   -5.7480   17.9930 C.2   196  HIS196      0.2597
     64  O         12.4580   -5.8230   17.8750 O.2   196  HIS196     -0.2718
     65  CB         9.3310   -5.9680   16.4580 C.3   196  HIS196      0.0759
     66  CG         8.2690   -5.3540   15.6020 C.ar  196  HIS196      0.0818
     67  ND1        6.9590   -5.2490   16.0120 N.ar  196  HIS196     -0.2268
     68  CD2        8.3100   -4.8620   14.3410 C.ar  196  HIS196      0.1154
     69  CE1        6.2360   -4.7260   15.0380 C.ar  196  HIS196      0.1986
     70  NE2        7.0320   -4.4810   14.0130 N.ar  196  HIS196     -0.2212
     71  N         10.5630   -6.3170   18.9870 N.am  197  SER197     -0.1938
     72  CA        11.1770   -7.1740   19.9970 C.3   197  SER197      0.2055
     73  C          9.9940   -8.0050   20.5140 C.2   197  SER197      0.2643
     74  O          8.8430   -7.5760   20.3890 O.2   197  SER197     -0.2714
     75  CB        11.8220   -6.3610   21.1370 C.3   197  SER197      0.2130
     76  OG        10.8790   -5.9850   22.1260 O.3   197  SER197     -0.2179
     77  N         10.2430   -9.2020   21.0400 N.am  198  TYR198     -0.1973
     78  CA        11.5790   -9.7830   21.1500 C.3   198  TYR198      0.1639
     79  C         11.5420  -11.1720   20.5060 C.2   198  TYR198      0.2290
     80  O         10.5450  -11.5390   19.8920 O.2   198  TYR198     -0.2864
     81  CB        11.9500   -9.9340   22.6260 C.3   198  TYR198      0.0560
     82  CG        11.0040  -10.8530   23.3680 C.ar  198  TYR198     -0.0198
     83  CD1        9.7830  -10.3850   23.8530 C.ar  198  TYR198     -0.0009
     84  CD2       11.3010  -12.2070   23.5310 C.ar  198  TYR198     -0.0009
     85  CE1        8.8790  -11.2380   24.4800 C.ar  198  TYR198      0.0417
     86  CE2       10.3980  -13.0740   24.1540 C.ar  198  TYR198      0.0417
     87  CZ         9.1910  -12.5820   24.6240 C.ar  198  TYR198      0.1957
     88  OH         8.2880  -13.4290   25.2280 O.3   198  TYR198     -0.2866
     89  N         13.1440  -11.3460    9.7530 N.3   203  LEU203     -0.1245
     90  CA        12.0880  -11.8600    8.8890 C.3   203  LEU203      0.1561
     91  C         11.8200  -11.0700    7.6170 C.2   203  LEU203      0.2260
     92  O         11.9550   -9.8470    7.5920 O.2   203  LEU203     -0.2867
     93  CB        10.7820  -11.9130    9.6830 C.3   203  LEU203      0.0270
     94  CG        10.8500  -12.5140   11.0870 C.3   203  LEU203      0.0019
     95  CD1        9.6320  -12.0850   11.8880 C.3   203  LEU203      0.0001
     96  CD2       10.9430  -14.0250   10.9870 C.3   203  LEU203      0.0001
     97  N          3.6680  -12.7680    5.5450 N.3   207  GLY207     -0.1225
     98  CA         3.0910  -13.2300    6.7900 C.3   207  GLY207      0.1811
     99  C          1.6320  -13.6100    6.5890 C.2   207  GLY207      0.2280
    100  O          1.1080  -14.4750    7.2880 O.2   207  GLY207     -0.2866
    101  N          8.0030  -14.5710    7.4950 N.3   243  ILE243     -0.1245
    102  CA         7.1710  -14.3960    8.6830 C.3   243  ILE243      0.1561
    103  C          6.3030  -15.6170    8.9910 C.2   243  ILE243      0.2260
    104  O          6.3550  -16.1790   10.0840 O.2   243  ILE243     -0.2867
    105  CB         6.2240  -13.1860    8.5210 C.3   243  ILE243      0.0252
    106  CG1        7.0320  -11.9050    8.3110 C.3   243  ILE243      0.0019
    107  CG2        5.3310  -13.0460    9.7440 C.3   243  ILE243      0.0019
    108  CD1        6.2000  -10.7600    7.7800 C.3   243  ILE243      0.0001
    109  N          7.5760  -17.4740   12.4780 N.3   247  ILE247     -0.1231
    110  CA         6.9480  -17.1250   13.7440 C.3   247  ILE247      0.1692
    111  C          5.4720  -17.5360   13.7420 C.2   247  ILE247      0.2592
    112  O          5.0580  -18.3600   14.5570 O.2   247  ILE247     -0.2718
    113  CB         7.1560  -15.6080   14.0690 C.3   247  ILE247      0.0266
    114  CG1        6.6030  -15.2890   15.4590 C.3   247  ILE247      0.0019
    115  CG2        6.5290  -14.7340   12.9960 C.3   247  ILE247      0.0020
    116  CD1        7.0370  -13.9400   15.9930 C.3   247  ILE247      0.0001
    117  N          4.6870  -16.9980   12.8140 N.am  248  TYR248     -0.1976
    118  CA         3.2750  -17.3490   12.7050 C.3   248  TYR248      0.1639
    119  C          2.5880  -16.5510   11.6120 C.2   248  TYR248      0.2290
    120  O          3.1410  -15.5750   11.1100 O.2   248  TYR248     -0.2864
    121  CB         2.5360  -17.1370   14.0380 C.3   248  TYR248      0.0560
    122  CG         2.8070  -15.8210   14.7560 C.ar  248  TYR248     -0.0198
    123  CD1        2.6380  -14.5930   14.1130 C.ar  248  TYR248     -0.0009
    124  CD2        3.2100  -15.8120   16.0950 C.ar  248  TYR248     -0.0009
    125  CE1        2.8650  -13.3860   14.7870 C.ar  248  TYR248      0.0417
    126  CE2        3.4370  -14.6170   16.7780 C.ar  248  TYR248      0.0417
    127  CZ         3.2650  -13.4070   16.1190 C.ar  248  TYR248      0.1957
    128  OH         3.5030  -12.2250   16.7910 O.3   248  TYR248     -0.2866
    129  N          0.4060  -13.8530   10.0620 N.3   250  ALA250     -0.1245
    130  CA         0.0320  -12.5170   10.5120 C.3   250  ALA250      0.1562
    131  C         -0.3860  -11.6830    9.3050 C.2   250  ALA250      0.2260
    132  O          0.3700  -11.5570    8.3440 O.2   250  ALA250     -0.2867
    133  CB         1.2070  -11.8590   11.2230 C.3   250  ALA250      0.0290
    134  N          0.5810   -6.8190    7.9610 N.3   253  GLY253     -0.1210
    135  CA         1.8850   -6.4110    8.4530 C.3   253  GLY253      0.1956
    136  C          2.5150   -5.3800    7.5350 C.2   253  GLY253      0.2613
    137  O          2.2560   -5.3780    6.3310 O.2   253  GLY253     -0.2717
    138  N          3.3660   -4.5230    8.0900 N.am  254  SER254     -0.1938
    139  CA         3.9850   -3.4580    7.3050 C.3   254  SER254      0.2055
    140  C          4.9400   -3.8710    6.1910 C.2   254  SER254      0.2643
    141  O          4.9120   -3.2710    5.1190 O.2   254  SER254     -0.2714
    142  CB         4.6860   -2.4570    8.2270 C.3   254  SER254      0.2130
    143  OG         5.8200   -3.0220    8.8570 O.3   254  SER254     -0.2179
    144  N          5.7810   -4.8770    6.4160 N.am  255  ILE255     -0.1963
    145  CA         6.7180   -5.2610    5.3620 C.3   255  ILE255      0.1727
    146  C          6.0610   -6.0190    4.2160 C.2   255  ILE255      0.2616
    147  O          6.6030   -6.0640    3.1160 O.2   255  ILE255     -0.2715
    148  CB         7.9150   -6.0730    5.9060 C.3   255  ILE255      0.0290
    149  CG1        7.4490   -7.3900    6.5090 C.3   255  ILE255      0.0022
    150  CG2        8.6710   -5.2390    6.9340 C.3   255  ILE255      0.0023
    151  CD1        8.6080   -8.2990    6.8840 C.3   255  ILE255      0.0001
    152  N          4.9030   -6.6230    4.4730 N.am  256  ASP256     -0.1971
    153  CA         4.1780   -7.3180    3.4170 C.3   256  ASP256      0.1709
    154  C          3.6530   -6.2130    2.5090 C.2   256  ASP256      0.2293
    155  O          3.6680   -6.3320    1.2810 O.2   256  ASP256     -0.2864
    156  CB         3.0160   -8.1280    3.9920 C.3   256  ASP256      0.1436
    157  CG         3.4710   -9.4500    4.6080 C.2   256  ASP256      0.3671
    158  OD1        4.6860   -9.7220    4.6190 O.co2 256  ASP256     -0.2456
    159  OD2        2.6160  -10.2180    5.0820 O.co2 256  ASP256     -0.2456
    160  N         11.9810   -7.2490    8.9130 N.3   268  THR268     -0.1218
    161  CA        11.5780   -6.8900   10.2670 C.3   268  THR268      0.1862
    162  C         12.5560   -7.5790   11.2050 C.2   268  THR268      0.2287
    163  O         12.8550   -8.7670   11.0460 O.2   268  THR268     -0.2866
    164  CB        10.1520   -7.3660   10.6370 C.3   268  THR268      0.1770
    165  OG1        9.1810   -6.6550    9.8620 O.3   268  THR268     -0.2211
    166  CG2        9.8780   -7.0990   12.1110 C.3   268  THR268      0.0375
    167  N         13.4000   -8.6440   15.1240 N.3   270  GLU270     -0.1245
    168  CA        12.8040   -8.8790   16.4350 C.3   270  GLU270      0.1567
    169  C         14.0740   -8.9230   17.2800 C.2   270  GLU270      0.2260
    170  O         14.8400   -9.8700   17.1760 O.2   270  GLU270     -0.2867
    171  CB        12.0940  -10.2370   16.4970 C.3   270  GLU270      0.0388
    172  CG        10.7920  -10.3240   15.7150 C.3   270  GLU270      0.1160
    173  CD         9.6080   -9.7270   16.4560 C.2   270  GLU270      0.3649
    174  OE1        8.4790   -9.8370   15.9350 O.co2 270  GLU270     -0.2457
    175  OE2        9.7950   -9.1540   17.5520 O.co2 270  GLU270     -0.2457
    176  N          9.9720   -8.0970   27.0510 N.3   279  PHE279     -0.1241
    177  CA         9.7940   -6.6680   26.8160 C.3   279  PHE279      0.1605
    178  C         10.4680   -5.7890   27.8630 C.2   279  PHE279      0.2264
    179  O         10.7190   -4.6040   27.6240 O.2   279  PHE279     -0.2867
    180  CB         8.3010   -6.3460   26.7550 C.3   279  PHE279      0.0534
    181  CG         7.5520   -7.1570   25.7370 C.ar  279  PHE279     -0.0203
    182  CD1        7.8460   -7.0360   24.3810 C.ar  279  PHE279     -0.0042
    183  CD2        6.5800   -8.0670   26.1330 C.ar  279  PHE279     -0.0042
    184  CE1        7.1850   -7.8130   23.4320 C.ar  279  PHE279     -0.0003
    185  CE2        5.9100   -8.8500   25.1970 C.ar  279  PHE279     -0.0003
    186  CZ         6.2140   -8.7240   23.8400 C.ar  279  PHE279     -0.0000
@<TRIPOS>BOND
     1   155   154    2
     2   154   153    1
     3   147   146    2
     4   153   156    1
     5   153   152    1
     6   156   157    1
     7   146   152   am
     8   146   145    1
     9   157   158   ar
    10   157   159   ar
    11   141   140    2
    12   145   148    1
    13   145   144    1
    14    97    98    1
    15   148   149    1
    16   148   150    1
    17   140   144   am
    18   140   139    1
    19   137   136    2
    20   149   151    1
    21    99    98    1
    22    99   100    2
    23   139   138    1
    24   139   142    1
    25   101   102    1
    26   136   138   am
    27   136   135    1
    28    92    91    2
    29    91    90    1
    30   108   106    1
    31   134   135    1
    32   142   143    1
    33   106   105    1
    34   132   131    2
    35   105   102    1
    36   105   107    1
    37   102   103    1
    38    90    93    1
    39    90    89    1
    40   160   161    1
    41   103   104    2
    42   131   130    1
    43    93    94    1
    44   165   164    1
    45   129   130    1
    46    53    52    2
    47   161   164    1
    48   161   162    1
    49   130   133    1
    50   164   166    1
    51    52    51    1
    52    96    94    1
    53   163   162    2
    54    94    95    1
    55   120   119    2
    56    48    47    2
    57    51    50    1
    58    51    54    1
    59   119   118    1
    60    45    44    2
    61    50    44   am
    62    44    43    1
    63    47    49   am
    64    47    46    1
    65   109   110    1
    66    54    55    1
    67    43    46    1
    68    43    42    1
    69    56    55    1
    70    56    57    1
    71   118   117    1
    72   118   121    1
    73   117   111   am
    74   115   113    1
    75    57    58    2
    76   111   110    1
    77   111   112    2
    78   110   113    1
    79    59    58    1
    80    58    60    1
    81    70    68   ar
    82    70    69   ar
    83   121   122    1
    84   113   114    1
    85   123   122   ar
    86   123   125   ar
    87    68    66   ar
    88   122   124   ar
    89   125   127   ar
    90    69    67   ar
    91   167   168    1
    92   114   116    1
    93    66    67   ar
    94    66    65    1
    95   172   173    1
    96   172   171    1
    97    61    62    1
    98   174   173   ar
    99   124   126   ar
   100   127   126   ar
   101   127   128    1
   102   168   171    1
   103   168   169    1
   104   173   175   ar
   105    65    62    1
   106     9    10   ar
   107     9     7   ar
   108    62    63    1
   109    10     8   ar
   110   170   169    2
   111    41    39    1
   112     7     6   ar
   113    64    63    2
   114     8     6   ar
   115    63    71   am
   116     1     2    1
   117     6     5    1
   118    39    38    2
   119    39    40    1
   120    71    72    1
   121    30    28   ar
   122     5     2    1
   123     2     3    1
   124    38    37    1
   125    80    79    2
   126    72    73    1
   127    72    75    1
   128    29    28   ar
   129    28    27    1
   130    74    73    2
   131     3     4    2
   132    34    33    2
   133    79    78    1
   134    73    77   am
   135    37    36    1
   136    36    35    1
   137    77    78    1
   138    75    76    1
   139    78    81    1
   140    33    32    1
   141    26    27    1
   142    26    23    1
   143    21    19    1
   144    25    24    2
   145    35    32    1
   146    32    31    1
   147    81    82    1
   148    23    24    1
   149    23    22    1
   150    19    20    1
   151    19    18    2
   152    22    13   am
   153    82    84   ar
   154    82    83   ar
   155   184   186   ar
   156   184   182   ar
   157    84    86   ar
   158    17    18    1
   159    17    16    1
   160    11    12    1
   161   186   185   ar
   162    83    85   ar
   163    86    87   ar
   164   182   181   ar
   165    85    87   ar
   166    13    12    1
   167    13    14    2
   168    87    88    1
   169    16    15    1
   170    12    15    1
   171   185   183   ar
   172   181   183   ar
   173   181   180    1
   174   180   177    1
   175   177   176    1
   176   177   178    1
   177   179   178    2
