@<TRIPOS>MOLECULE
tmp/1iy8F01.pdb
 109 101 0 0 0
SMALL
GASTEIGER

@<TRIPOS>ATOM
      1  N         10.6280   73.4360   82.2100 N.3    94  GLU94      -0.1245
      2  CA        11.5290   72.8790   83.2120 C.3    94  GLU94       0.1567
      3  C         10.8290   72.4400   84.4880 C.2    94  GLU94       0.2260
      4  O         11.0420   71.3240   84.9720 O.2    94  GLU94      -0.2867
      5  CB        12.6170   73.8910   83.5840 C.3    94  GLU94       0.0388
      6  CG        13.5860   73.3640   84.6370 C.3    94  GLU94       0.1160
      7  CD        14.6060   74.3970   85.0760 C.2    94  GLU94       0.3649
      8  OE1       15.5350   74.0250   85.8250 O.co2  94  GLU94      -0.2457
      9  OE2       14.4760   75.5740   84.6800 O.co2  94  GLU94      -0.2457
     10  N         12.2290   74.1650   90.5110 N.3    97  GLN97      -0.1245
     11  CA        13.2260   73.3450   91.2020 C.3    97  GLN97       0.1566
     12  C         12.9090   73.1570   92.6880 C.2    97  GLN97       0.2260
     13  O         12.5070   74.1020   93.3690 O.2    97  GLN97      -0.2867
     14  CB        14.6080   73.9850   91.0500 C.3    97  GLN97       0.0367
     15  CG        15.1900   73.8870   89.6490 C.3    97  GLN97       0.0905
     16  CD        16.4410   74.7240   89.4750 C.2    97  GLN97       0.2608
     17  OE1       17.1940   74.9400   90.4250 O.2    97  GLN97      -0.2717
     18  NE2       16.6790   75.1880   88.2540 N.am   97  GLN97      -0.0878
     19  N         16.6090   64.9410   77.1840 N.3   143  SER143     -0.1202
     20  CA        17.5460   65.8030   77.8940 C.3   143  SER143      0.2020
     21  C         18.5850   64.9170   78.5520 C.2   143  SER143      0.2618
     22  O         18.4160   63.6980   78.6020 O.2   143  SER143     -0.2717
     23  CB        16.8120   66.5920   78.9850 C.3   143  SER143      0.2103
     24  OG        17.7210   67.0860   79.9570 O.3   143  SER143     -0.2182
     25  N         19.6700   65.5110   79.0390 N.am  144  VAL144     -0.1979
     26  CA        20.6520   64.7060   79.7470 C.3   144  VAL144      0.1595
     27  C         19.9400   64.2870   81.0320 C.2   144  VAL144      0.2287
     28  O         20.3000   63.2940   81.6520 O.2   144  VAL144     -0.2864
     29  CB        21.9420   65.4920   80.0700 C.3   144  VAL144      0.0276
     30  CG1       22.7540   65.6980   78.7900 C.3   144  VAL144      0.0022
     31  CG2       21.6050   66.8320   80.7030 C.3   144  VAL144      0.0022
     32  N         20.0810   64.8460   87.6150 N.3   150  ILE150     -0.1245
     33  CA        20.5860   66.2000   87.8060 C.3   150  ILE150      0.1561
     34  C         20.3420   66.6770   89.2370 C.2   150  ILE150      0.2260
     35  O         21.1850   67.3600   89.8240 O.2   150  ILE150     -0.2867
     36  CB        19.9090   67.1690   86.8070 C.3   150  ILE150      0.0252
     37  CG1       20.3100   66.7910   85.3770 C.3   150  ILE150      0.0019
     38  CG2       20.2980   68.6060   87.1170 C.3   150  ILE150      0.0019
     39  CD1       19.5740   67.5630   84.2990 C.3   150  ILE150      0.0001
     40  N         14.8830   68.0740   90.3880 N.3   153  GLN153     -0.1245
     41  CA        13.9360   68.1270   89.2750 C.3   153  GLN153      0.1566
     42  C         13.1270   66.8450   89.0670 C.2   153  GLN153      0.2260
     43  O         13.0940   66.2880   87.9680 O.2   153  GLN153     -0.2867
     44  CB        14.6530   68.5110   87.9700 C.3   153  GLN153      0.0367
     45  CG        15.8400   67.6380   87.5760 C.3   153  GLN153      0.0905
     46  CD        16.2630   67.8680   86.1280 C.2   153  GLN153      0.2608
     47  OE1       16.3320   69.0080   85.6530 O.2   153  GLN153     -0.2717
     48  NE2       16.5500   66.7850   85.4220 N.am  153  GLN153     -0.0878
     49  N         10.8310   66.9170   85.9300 N.3   156  TYR156     -0.1241
     50  CA        11.5770   66.9310   84.6800 C.3   156  TYR156      0.1605
     51  C         12.2640   65.5910   84.4340 C.2   156  TYR156      0.2264
     52  O         12.2120   65.0490   83.3270 O.2   156  TYR156     -0.2867
     53  CB        12.6260   68.0410   84.7180 C.3   156  TYR156      0.0534
     54  CG        13.1950   68.4280   83.3740 C.ar  156  TYR156     -0.0201
     55  CD1       12.5060   69.3000   82.5320 C.ar  156  TYR156     -0.0009
     56  CD2       14.4420   67.9620   82.9630 C.ar  156  TYR156     -0.0009
     57  CE1       13.0470   69.7090   81.3190 C.ar  156  TYR156      0.0417
     58  CE2       14.9970   68.3640   81.7450 C.ar  156  TYR156      0.0417
     59  CZ        14.2910   69.2390   80.9360 C.ar  156  TYR156      0.1957
     60  OH        14.8340   69.6640   79.7420 O.3   156  TYR156     -0.2866
     61  N         22.3720   69.0420   76.6030 N.3   187  GLY187     -0.1210
     62  CA        22.9400   69.3630   77.8970 C.3   187  GLY187      0.1956
     63  C         22.8180   70.8540   78.1350 C.2   187  GLY187      0.2611
     64  O         21.7450   71.4310   77.9490 O.2   187  GLY187     -0.2717
     65  N         23.9210   71.4860   78.5240 N.am  188  ALA188     -0.1979
     66  CA        23.9230   72.9200   78.7950 C.3   188  ALA188      0.1597
     67  C         23.9780   73.7420   77.5130 C.2   188  ALA188      0.2287
     68  O         25.0560   74.0770   77.0260 O.2   188  ALA188     -0.2864
     69  CB        25.1010   73.2770   79.6950 C.3   188  ALA188      0.0319
     70  N         15.1930   78.6040   78.2290 N.3   193  MET193     -0.1230
     71  CA        14.8800   77.6930   79.3320 C.3   193  MET193      0.1702
     72  C         16.0630   77.5600   80.2800 C.2   193  MET193      0.2592
     73  O         15.8990   77.6120   81.4990 O.2   193  MET193     -0.2718
     74  CB        14.5000   76.2940   78.8250 C.3   193  MET193      0.0401
     75  CG        14.1210   75.3440   79.9660 C.3   193  MET193      0.0596
     76  SD        13.7300   73.6450   79.4840 S.3   193  MET193     -0.1393
     77  CE        12.1510   73.8910   78.6730 C.3   193  MET193      0.0692
     78  N         17.2530   77.3820   79.7160 N.am  194  VAL194     -0.1980
     79  CA        18.4570   77.2320   80.5190 C.3   194  VAL194      0.1595
     80  C         18.8080   78.5350   81.2350 C.2   194  VAL194      0.2287
     81  O         19.3100   78.5170   82.3600 O.2   194  VAL194     -0.2864
     82  CB        19.6380   76.7570   79.6420 C.3   194  VAL194      0.0276
     83  CG1       20.9190   76.7050   80.4550 C.3   194  VAL194      0.0022
     84  CG2       19.3160   75.3690   79.0720 C.3   194  VAL194      0.0022
     85  N         16.6110   78.6300   84.0880 N.3   197  SER197     -0.1202
     86  CA        16.9970   77.5860   85.0290 C.3   197  SER197      0.2020
     87  C         18.0960   78.0930   85.9610 C.2   197  SER197      0.2618
     88  O         18.0850   77.8040   87.1570 O.2   197  SER197     -0.2717
     89  CB        17.4870   76.3450   84.2760 C.3   197  SER197      0.2103
     90  OG        17.8300   75.3020   85.1760 O.3   197  SER197     -0.2182
     91  N         19.0410   78.8560   85.4140 N.am  198  MET198     -0.1979
     92  CA        20.1350   79.3950   86.2160 C.3   198  MET198      0.1605
     93  C         19.6230   80.4570   87.1790 C.2   198  MET198      0.2287
     94  O         20.2050   80.6660   88.2450 O.2   198  MET198     -0.2864
     95  CB        21.2240   79.9870   85.3170 C.3   198  MET198      0.0413
     96  CG        21.9060   78.9640   84.4170 C.3   198  MET198      0.0598
     97  SD        22.5740   77.5620   85.3470 S.3   198  MET198     -0.1393
     98  CE        22.6460   76.3110   84.0640 C.3   198  MET198      0.0692
     99  N         28.2250   76.1180   86.9500 N.3   213  PHE213     -0.1241
    100  CA        27.6000   74.9270   86.3800 C.3   213  PHE213      0.1605
    101  C         28.3910   74.3070   85.2330 C.2   213  PHE213      0.2264
    102  O         28.5020   73.0840   85.1430 O.2   213  PHE213     -0.2867
    103  CB        26.1920   75.2680   85.8770 C.3   213  PHE213      0.0534
    104  CG        25.4020   74.0700   85.4170 C.ar  213  PHE213     -0.0203
    105  CD1       24.7380   73.2590   86.3380 C.ar  213  PHE213     -0.0042
    106  CD2       25.3280   73.7480   84.0650 C.ar  213  PHE213     -0.0042
    107  CE1       24.0120   72.1450   85.9190 C.ar  213  PHE213     -0.0003
    108  CE2       24.6020   72.6310   83.6330 C.ar  213  PHE213     -0.0003
    109  CZ        23.9440   71.8310   84.5630 C.ar  213  PHE213     -0.0000
@<TRIPOS>BOND
     1    61    62    1
     2    68    67    2
     3    19    20    1
     4    67    66    1
     5    20    21    1
     6    20    23    1
     7    62    63    1
     8    64    63    2
     9    63    65   am
    10    70    71    1
    11    65    66    1
    12    21    22    2
    13    21    25   am
    14    77    76    1
    15    30    29    1
    16    66    69    1
    17    74    71    1
    18    74    75    1
    19    23    24    1
    20    25    26    1
    21    84    82    1
    22    71    72    1
    23    76    75    1
    24    82    83    1
    25    82    79    1
    26    78    72   am
    27    78    79    1
    28    60    59    1
    29    26    29    1
    30    26    27    1
    31    29    31    1
    32    72    73    2
    33    79    80    1
    34    59    57   ar
    35    59    58   ar
    36    27    28    2
    37    80    81    2
    38    57    55   ar
    39    58    56   ar
    40     1     2    1
    41    55    54   ar
    42    56    54   ar
    43     2     5    1
    44     2     3    1
    45    52    51    2
    46    54    53    1
    47     5     6    1
    48   108   106   ar
    49   108   109   ar
    50    98    97    1
    51   106   104   ar
    52    85    86    1
    53    89    86    1
    54    89    90    1
    55    39    37    1
    56    96    95    1
    57    96    97    1
    58    51    50    1
    59     3     4    2
    60   109   107   ar
    61     6     7    1
    62     9     7   ar
    63    50    53    1
    64    50    49    1
    65    86    87    1
    66     7     8   ar
    67   102   101    2
    68   101   100    1
    69    95    92    1
    70    37    36    1
    71    91    87   am
    72    91    92    1
    73   104   103    1
    74   104   105   ar
    75    48    46   am
    76    47    46    2
    77   103   100    1
    78   107   105   ar
    79    87    88    2
    80    46    45    1
    81    92    93    1
    82   100    99    1
    83    36    38    1
    84    36    33    1
    85    93    94    2
    86    45    44    1
    87    32    33    1
    88    33    34    1
    89    43    42    2
    90    44    41    1
    91    18    16   am
    92    42    41    1
    93    34    35    2
    94    41    40    1
    95    16    15    1
    96    16    17    2
    97    15    14    1
    98    10    11    1
    99    14    11    1
   100    11    12    1
   101    12    13    2
