@<TRIPOS>MOLECULE
tmp/1iybA00.pdb
 133 133 0 0 0
SMALL
GASTEIGER

@<TRIPOS>ATOM
      1  N         28.8430   72.9710   35.3120 N.3    16  GLN16      -0.1245
      2  CA        29.8470   73.9160   34.8350 C.3    16  GLN16       0.1566
      3  C         29.8440   75.2070   35.6410 C.2    16  GLN16       0.2260
      4  O         28.7990   75.6440   36.1320 O.2    16  GLN16      -0.2867
      5  CB        29.5900   74.2570   33.3560 C.3    16  GLN16       0.0367
      6  CG        28.2180   74.8930   33.0930 C.3    16  GLN16       0.0905
      7  CD        28.0460   75.3940   31.6610 C.2    16  GLN16       0.2608
      8  OE1       28.9000   75.1720   30.8010 O.2    16  GLN16      -0.2717
      9  NE2       26.9310   76.0730   31.4010 N.am   16  GLN16      -0.0878
     10  N         33.5340   79.4660   31.9800 N.3    21  TYR21      -0.1241
     11  CA        33.0740   79.2840   30.6120 C.3    21  TYR21       0.1605
     12  C         33.1460   80.6330   29.9030 C.2    21  TYR21       0.2264
     13  O         33.3310   80.7020   28.6880 O.2    21  TYR21      -0.2867
     14  CB        31.6230   78.7940   30.5870 C.3    21  TYR21       0.0534
     15  CG        31.1180   78.4560   29.1980 C.ar   21  TYR21      -0.0201
     16  CD1       31.2830   77.1790   28.6690 C.ar   21  TYR21      -0.0009
     17  CD2       30.4890   79.4190   28.4080 C.ar   21  TYR21      -0.0009
     18  CE1       30.8330   76.8640   27.3880 C.ar   21  TYR21       0.0417
     19  CE2       30.0350   79.1150   27.1220 C.ar   21  TYR21       0.0417
     20  CZ        30.2100   77.8360   26.6240 C.ar   21  TYR21       0.1957
     21  OH        29.7440   77.5150   25.3710 O.3    21  TYR21      -0.2866
     22  N         25.2690   70.9890   33.1680 N.3    43  HIS43      -0.1241
     23  CA        25.7370   70.8610   31.7970 C.3    43  HIS43       0.1621
     24  C         24.8820   69.7060   31.2730 C.2    43  HIS43       0.2264
     25  O         24.1710   69.8540   30.2800 O.2    43  HIS43      -0.2867
     26  CB        27.2270   70.5150   31.7060 C.3    43  HIS43       0.0745
     27  CG        27.7340   70.4500   30.2970 C.ar   43  HIS43       0.0817
     28  ND1       29.0750   70.5050   29.9810 N.ar   43  HIS43      -0.2268
     29  CD2       27.0760   70.3220   29.1190 C.ar   43  HIS43       0.1154
     30  CE1       29.2200   70.4140   28.6700 C.ar   43  HIS43       0.1986
     31  NE2       28.0220   70.3020   28.1240 N.ar   43  HIS43      -0.2212
     32  N         25.1770   62.4530   31.7390 N.3    46  TRP46      -0.1241
     33  CA        25.7750   61.6600   30.6720 C.3    46  TRP46       0.1605
     34  C         26.0100   60.1710   30.8530 C.2    46  TRP46       0.2264
     35  O         26.8230   59.7620   31.6830 O.2    46  TRP46      -0.2867
     36  CB        27.1330   62.2570   30.2990 C.3    46  TRP46       0.0550
     37  CG        27.1630   63.7240   29.9900 C.ar   46  TRP46       0.0003
     38  CD1       26.1030   64.5310   29.6900 C.ar   46  TRP46       0.0946
     39  CD2       28.3340   64.5470   29.8890 C.ar   46  TRP46       0.0152
     40  NE1       26.5420   65.8020   29.4050 N.ar   46  TRP46      -0.2442
     41  CE2       27.9060   65.8400   29.5200 C.ar   46  TRP46       0.0810
     42  CE3       29.7050   64.3140   30.0740 C.ar   46  TRP46       0.0012
     43  CZ2       28.8000   66.9000   29.3320 C.ar   46  TRP46       0.0191
     44  CZ3       30.5920   65.3640   29.8880 C.ar   46  TRP46       0.0001
     45  CH2       30.1350   66.6430   29.5200 C.ar   46  TRP46       0.0015
     46  N         21.1660   77.1100   32.6390 N.3    81  PRO81      -0.2102
     47  CA        21.3030   78.1670   31.6330 C.3    81  PRO81       0.1504
     48  C         22.2940   77.8680   30.5190 C.2    81  PRO81       0.2576
     49  O         23.2380   77.0930   30.6980 O.2    81  PRO81      -0.2718
     50  CB        21.7390   79.3730   32.4600 C.3    81  PRO81       0.0282
     51  CG        22.5800   78.7390   33.5310 C.3    81  PRO81       0.0208
     52  CD        21.7480   77.5290   33.9280 C.3    81  PRO81       0.0893
     53  N         22.0630   78.4880   29.3670 N.am   82  THR82      -0.1939
     54  CA        22.9630   78.3480   28.2330 C.3    82  THR82       0.2028
     55  C         23.8220   79.6100   28.2030 C.2    82  THR82       0.2642
     56  O         23.3290   80.7150   28.4550 O.2    82  THR82      -0.2714
     57  CB        22.2090   78.2180   26.8900 C.3    82  THR82       0.1808
     58  OG1       23.1640   78.1560   25.8240 O.3    82  THR82      -0.2208
     59  CG2       21.2850   79.4120   26.6600 C.3    82  THR82       0.0379
     60  N         25.1090   79.4390   27.9220 N.am   83  LEU83      -0.1963
     61  CA        26.0320   80.5640   27.8680 C.3    83  LEU83       0.1728
     62  C         26.6470   80.7090   26.4780 C.2    83  LEU83       0.2616
     63  O         27.6370   81.4110   26.2990 O.2    83  LEU83      -0.2715
     64  CB        27.1320   80.3900   28.9190 C.3    83  LEU83       0.0311
     65  CG        26.6560   80.4640   30.3710 C.3    83  LEU83       0.0022
     66  CD1       27.7900   80.0780   31.3100 C.3    83  LEU83       0.0001
     67  CD2       26.1640   81.8730   30.6750 C.3    83  LEU83       0.0001
     68  N         26.0480   80.0460   25.4950 N.am   84  ALA84      -0.1977
     69  CA        26.5380   80.1130   24.1210 C.3    84  ALA84       0.1597
     70  C         26.0070   81.3620   23.4100 C.2    84  ALA84       0.2287
     71  O         25.0030   81.9440   23.8180 O.2    84  ALA84      -0.2864
     72  CB        26.1200   78.8580   23.3590 C.3    84  ALA84       0.0319
     73  N         20.2290   74.1720   23.9580 N.3    93  PHE93      -0.1241
     74  CA        21.1510   73.4860   24.8540 C.3    93  PHE93       0.1605
     75  C         20.4660   72.2440   25.4320 C.2    93  PHE93       0.2264
     76  O         21.0300   71.1480   25.4080 O.2    93  PHE93      -0.2867
     77  CB        21.5750   74.4600   25.9650 C.3    93  PHE93       0.0534
     78  CG        22.6670   73.9450   26.8780 C.ar   93  PHE93      -0.0203
     79  CD1       23.5490   72.9500   26.4690 C.ar   93  PHE93      -0.0042
     80  CD2       22.8350   74.5070   28.1410 C.ar   93  PHE93      -0.0042
     81  CE1       24.5840   72.5240   27.3030 C.ar   93  PHE93      -0.0003
     82  CE2       23.8660   74.0900   28.9850 C.ar   93  PHE93      -0.0003
     83  CZ        24.7440   73.0940   28.5640 C.ar   93  PHE93      -0.0000
     84  N         19.9840   69.5780   22.7830 N.3    96  HIS96      -0.1226
     85  CA        21.2570   68.9250   22.5040 C.3    96  HIS96       0.1752
     86  C         21.5890   67.8680   23.5570 C.2    96  HIS96       0.2595
     87  O         22.0170   66.7620   23.2290 O.2    96  HIS96      -0.2718
     88  CB        22.3790   69.9670   22.4530 C.3    96  HIS96       0.0759
     89  CG        23.7500   69.3720   22.3900 C.ar   96  HIS96       0.0818
     90  ND1       24.2490   68.7690   21.2570 N.ar   96  HIS96      -0.2268
     91  CD2       24.7150   69.2560   23.3340 C.ar   96  HIS96       0.1154
     92  CE1       25.4630   68.3070   21.5040 C.ar   96  HIS96       0.1986
     93  NE2       25.7690   68.5890   22.7580 N.ar   96  HIS96      -0.2212
     94  N         21.3990   68.2070   24.8260 N.am   97  GLU97      -0.1979
     95  CA        21.6990   67.2610   25.8870 C.3    97  GLU97       0.1602
     96  C         20.7840   66.0430   25.8360 C.2    97  GLU97       0.2287
     97  O         21.2280   64.9180   26.0830 O.2    97  GLU97      -0.2864
     98  CB        21.6260   67.9560   27.2520 C.3    97  GLU97       0.0415
     99  CG        22.7440   68.9800   27.4480 C.3    97  GLU97       0.1163
    100  CD        24.1330   68.3540   27.3930 C.2    97  GLU97       0.3649
    101  OE1       25.0190   68.9170   26.7120 O.co2  97  GLU97      -0.2457
    102  OE2       24.3400   67.3030   28.0380 O.co2  97  GLU97      -0.2457
    103  N         21.8130   63.9750   22.4250 N.3   100  LYS100     -0.1231
    104  CA        23.1320   63.3480   22.4740 C.3   100  LYS100      0.1693
    105  C         23.3090   62.3720   23.6340 C.2   100  LYS100      0.2592
    106  O         23.9120   61.3080   23.4720 O.2   100  LYS100     -0.2718
    107  CB        24.2350   64.4080   22.5640 C.3   100  LYS100      0.0285
    108  CG        25.6420   63.8130   22.6670 C.3   100  LYS100      0.0035
    109  CD        26.7260   64.8870   22.6510 C.3   100  LYS100      0.0206
    110  CE        28.1220   64.2620   22.6720 C.3   100  LYS100      0.1093
    111  NZ        29.2190   65.2770   22.6190 N.3   100  LYS100     -0.1314
    112  N         22.7760   62.7260   24.8000 N.am  101  HIS101     -0.1976
    113  CA        22.9390   61.8970   25.9920 C.3   101  HIS101      0.1656
    114  C         21.6780   61.2130   26.5340 C.2   101  HIS101      0.2291
    115  O         21.6870   60.0140   26.8240 O.2   101  HIS101     -0.2864
    116  CB        23.5670   62.7500   27.0980 C.3   101  HIS101      0.0771
    117  CG        24.9400   63.2580   26.7710 C.ar  101  HIS101      0.0820
    118  ND1       26.0410   62.4320   26.6970 N.ar  101  HIS101     -0.2267
    119  CD2       25.3930   64.5100   26.5180 C.ar  101  HIS101      0.1154
    120  CE1       27.1130   63.1530   26.4150 C.ar  101  HIS101      0.1986
    121  NE2       26.7470   64.4170   26.3020 N.ar  101  HIS101     -0.2212
    122  N         36.7110   74.3530   36.0290 N.3   175  TYR175     -0.1241
    123  CA        35.6920   74.4940   34.9950 C.3   175  TYR175      0.1605
    124  C         34.4440   73.6280   35.1970 C.2   175  TYR175      0.2264
    125  O         33.3330   74.1520   35.2720 O.2   175  TYR175     -0.2867
    126  CB        36.3520   74.2210   33.6400 C.3   175  TYR175      0.0534
    127  CG        35.4290   74.2110   32.4490 C.ar  175  TYR175     -0.0201
    128  CD1       34.4170   75.1590   32.3110 C.ar  175  TYR175     -0.0009
    129  CD2       35.5900   73.2660   31.4380 C.ar  175  TYR175     -0.0009
    130  CE1       33.5880   75.1630   31.1920 C.ar  175  TYR175      0.0417
    131  CE2       34.7710   73.2630   30.3200 C.ar  175  TYR175      0.0417
    132  CZ        33.7730   74.2130   30.2040 C.ar  175  TYR175      0.1957
    133  OH        32.9570   74.2090   29.0960 O.3   175  TYR175     -0.2866
@<TRIPOS>BOND
     1    90    92   ar
     2    90    89   ar
     3    92    93   ar
     4    89    88    1
     5    89    91   ar
     6   103   104    1
     7    88    85    1
     8   104   107    1
     9   104   105    1
    10    85    84    1
    11    85    86    1
    12   107   108    1
    13   111   110    1
    14   109   108    1
    15   109   110    1
    16    93    91   ar
    17    87    86    2
    18    72    69    1
    19    70    71    2
    20    70    69    1
    21   106   105    2
    22    86    94   am
    23   105   112   am
    24    73    74    1
    25    69    68    1
    26   112   113    1
    27    94    95    1
    28    74    75    1
    29    74    77    1
    30    21    20    1
    31    76    75    2
    32    68    62   am
    33    58    57    1
    34    96    95    1
    35    96    97    2
    36    95    98    1
    37    77    78    1
    38   113   114    1
    39   113   116    1
    40    63    62    2
    41   121   120   ar
    42   121   119   ar
    43   120   118   ar
    44    79    78   ar
    45    79    81   ar
    46    62    61    1
    47   119   117   ar
    48   114   115    2
    49    20    19   ar
    50    20    18   ar
    51    59    57    1
    52   118   117   ar
    53   101   100   ar
    54   117   116    1
    55    78    80   ar
    56    57    54    1
    57    19    17   ar
    58    98    99    1
    59    81    83   ar
    60    18    16   ar
    61   100    99    1
    62   100   102   ar
    63    61    60    1
    64    61    64    1
    65    60    55   am
    66    31    30   ar
    67    31    29   ar
    68    80    82   ar
    69    55    54    1
    70    55    56    2
    71    54    53    1
    72    17    15   ar
    73    83    82   ar
    74    16    15   ar
    75    30    28   ar
    76    13    12    2
    77    64    65    1
    78   133   132    1
    79    29    27   ar
    80    15    14    1
    81    43    41   ar
    82    43    45   ar
    83    53    48   am
    84    40    41   ar
    85    40    38   ar
    86    41    39   ar
    87    45    44   ar
    88    38    37   ar
    89    44    42   ar
    90    39    37   ar
    91    39    42   ar
    92    12    11    1
    93    28    27   ar
    94    37    36    1
    95   132   131   ar
    96   132   130   ar
    97    25    24    2
    98    27    26    1
    99    36    33    1
   100   131   129   ar
   101    65    67    1
   102    65    66    1
   103    48    49    2
   104    48    47    1
   105    14    11    1
   106    11    10    1
   107    33    34    1
   108    33    32    1
   109     8     7    2
   110    34    35    2
   111   130   128   ar
   112    24    23    1
   113     9     7   am
   114   129   127   ar
   115    47    50    1
   116    47    46    1
   117     7     6    1
   118    26    23    1
   119    23    22    1
   120   128   127   ar
   121   127   126    1
   122    50    51    1
   123    46    52    1
   124     6     5    1
   125     5     2    1
   126    51    52    1
   127   126   123    1
   128     2     1    1
   129     2     3    1
   130   123   124    1
   131   123   122    1
   132   124   125    2
   133     3     4    2
