@<TRIPOS>MOLECULE
tmp/1iydA01.pdb
 110 106 0 0 0
SMALL
GASTEIGER

@<TRIPOS>ATOM
      1  N         25.2770   22.1940   15.3190 N.3    33  PHE33      -0.1241
      2  CA        24.1440   22.3150   16.2190 C.3    33  PHE33       0.1605
      3  C         24.0880   21.2090   17.2620 C.2    33  PHE33       0.2264
      4  O         24.8750   20.2550   17.2300 O.2    33  PHE33      -0.2867
      5  CB        22.8460   22.3300   15.4050 C.3    33  PHE33       0.0534
      6  CG        22.4760   20.9930   14.8110 C.ar   33  PHE33      -0.0203
      7  CD1       21.6940   20.0830   15.5310 C.ar   33  PHE33      -0.0042
      8  CD2       22.8960   20.6440   13.5250 C.ar   33  PHE33      -0.0042
      9  CE1       21.3330   18.8490   14.9780 C.ar   33  PHE33      -0.0003
     10  CE2       22.5410   19.4100   12.9630 C.ar   33  PHE33      -0.0003
     11  CZ        21.7590   18.5130   13.6890 C.ar   33  PHE33      -0.0000
     12  N         21.2100   18.9770   20.1290 N.3    35  GLY35      -0.1225
     13  CA        19.8540   18.5740   20.4420 C.3    35  GLY35       0.1811
     14  C         19.8900   18.3800   21.9400 C.2    35  GLY35       0.2280
     15  O         20.6940   17.5890   22.4340 O.2    35  GLY35      -0.2866
     16  N         12.4910   20.6890   24.0560 N.3    92  TYR92      -0.1241
     17  CA        13.6130   20.3140   23.2130 C.3    92  TYR92       0.1605
     18  C         14.3030   21.6490   22.9490 C.2    92  TYR92       0.2264
     19  O         13.6390   22.6590   22.6740 O.2    92  TYR92      -0.2867
     20  CB        13.1300   19.6990   21.8960 C.3    92  TYR92       0.0534
     21  CG        14.2480   19.3300   20.9440 C.ar   92  TYR92      -0.0201
     22  CD1       14.8500   18.0680   20.9880 C.ar   92  TYR92      -0.0009
     23  CD2       14.7140   20.2490   20.0020 C.ar   92  TYR92      -0.0009
     24  CE1       15.8900   17.7310   20.1060 C.ar   92  TYR92       0.0417
     25  CE2       15.7510   19.9280   19.1250 C.ar   92  TYR92       0.0417
     26  CZ        16.3360   18.6690   19.1780 C.ar   92  TYR92       0.1957
     27  OH        17.3650   18.3640   18.3040 O.3    92  TYR92      -0.2866
     28  N         17.3310   23.7010   20.7810 N.3    94  ARG94      -0.1245
     29  CA        18.1550   23.6280   19.5880 C.3    94  ARG94       0.1563
     30  C         19.1670   24.7660   19.5020 C.2    94  ARG94       0.2260
     31  O         18.8330   25.8740   19.0780 O.2    94  ARG94      -0.2867
     32  CB        17.2670   23.6100   18.3330 C.3    94  ARG94       0.0307
     33  CG        18.0050   23.7710   16.9870 C.3    94  ARG94       0.0489
     34  CD        19.1260   22.7380   16.7980 C.3    94  ARG94       0.2205
     35  NE        18.6310   21.3730   16.6590 N.pl3  94  ARG94      -0.0865
     36  CZ        18.1450   20.8590   15.5340 C.cat  94  ARG94       0.5346
     37  NH1       18.0850   21.5960   14.4280 N.pl3  94  ARG94       0.1354
     38  NH2       17.7120   19.6060   15.5140 N.pl3  94  ARG94       0.1354
     39  N          8.4610   19.2570   21.9260 N.3   123  TRP123     -0.1241
     40  CA         8.6200   18.4340   20.7340 C.3   123  TRP123      0.1605
     41  C          8.2820   16.9920   21.1060 C.2   123  TRP123      0.2264
     42  O          8.8710   16.4360   22.0370 O.2   123  TRP123     -0.2867
     43  CB        10.0600   18.5420   20.1950 C.3   123  TRP123      0.0550
     44  CG        10.1610   18.2820   18.7100 C.ar  123  TRP123      0.0003
     45  CD1        9.1280   18.2190   17.8240 C.ar  123  TRP123      0.0946
     46  CD2       11.3620   18.0840   17.9380 C.ar  123  TRP123      0.0152
     47  NE1        9.6030   17.9940   16.5520 N.ar  123  TRP123     -0.2442
     48  CE2       10.9690   17.9080   16.5940 C.ar  123  TRP123      0.0810
     49  CE3       12.7260   18.0400   18.2530 C.ar  123  TRP123      0.0012
     50  CZ2       11.8940   17.6860   15.5610 C.ar  123  TRP123      0.0191
     51  CZ3       13.6450   17.8200   17.2290 C.ar  123  TRP123      0.0001
     52  CH2       13.2250   17.6460   15.9000 C.ar  123  TRP123      0.0015
     53  N         10.3920   11.7350   18.7290 N.3   126  TYR126     -0.1241
     54  CA        10.9160   11.8460   17.3760 C.3   126  TYR126      0.1605
     55  C         10.3380   10.8740   16.3620 C.2   126  TYR126      0.2264
     56  O         10.0160   11.2710   15.2440 O.2   126  TYR126     -0.2867
     57  CB        12.4470   11.7130   17.3800 C.3   126  TYR126      0.0534
     58  CG        13.0860   12.1590   16.0790 C.ar  126  TYR126     -0.0201
     59  CD1       13.0340   13.4970   15.6800 C.ar  126  TYR126     -0.0009
     60  CD2       13.7380   11.2460   15.2480 C.ar  126  TYR126     -0.0009
     61  CE1       13.6180   13.9190   14.4870 C.ar  126  TYR126      0.0417
     62  CE2       14.3280   11.6550   14.0470 C.ar  126  TYR126      0.0417
     63  CZ        14.2670   12.9950   13.6730 C.ar  126  TYR126      0.1957
     64  OH        14.8680   13.4180   12.5020 O.3   126  TYR126     -0.2866
     65  N         28.7970   17.3090   14.9760 N.3   156  LYS156     -0.1245
     66  CA        27.3700   17.3930   14.6680 C.3   156  LYS156      0.1561
     67  C         27.1620   18.7100   13.9190 C.2   156  LYS156      0.2260
     68  O         26.8820   19.7420   14.5240 O.2   156  LYS156     -0.2867
     69  CB        26.5550   17.3650   15.9650 C.3   156  LYS156      0.0271
     70  CG        25.0620   17.0550   15.8040 C.3   156  LYS156      0.0035
     71  CD        24.3970   16.8850   17.1760 C.3   156  LYS156      0.0206
     72  CE        22.9080   16.5410   17.0590 C.3   156  LYS156      0.1093
     73  NZ        22.8340   15.2320   16.3830 N.3   156  LYS156     -0.1314
     74  N         23.7630   16.6000    7.5650 N.3   161  TYR161     -0.1241
     75  CA        22.4040   16.1140    7.4140 C.3   161  TYR161      0.1605
     76  C         21.7710   15.8480    6.0570 C.2   161  TYR161      0.2264
     77  O         20.6400   15.3690    6.0020 O.2   161  TYR161     -0.2867
     78  CB        21.4800   16.9550    8.2840 C.3   161  TYR161      0.0534
     79  CG        21.3690   16.3420    9.6570 C.ar  161  TYR161     -0.0201
     80  CD1       22.4830   16.2300   10.4900 C.ar  161  TYR161     -0.0009
     81  CD2       20.1690   15.7830   10.0830 C.ar  161  TYR161     -0.0009
     82  CE1       22.3980   15.5620   11.7180 C.ar  161  TYR161      0.0417
     83  CE2       20.0710   15.1220   11.2940 C.ar  161  TYR161      0.0417
     84  CZ        21.1780   15.0090   12.1090 C.ar  161  TYR161      0.1957
     85  OH        21.0380   14.3240   13.2990 O.3   161  TYR161     -0.2866
     86  N         19.2840    9.5200   12.3750 N.3   193  GLY193     -0.1225
     87  CA        19.5190   10.5220   13.4000 C.3   193  GLY193      0.1811
     88  C         19.5020    9.9430   14.7990 C.2   193  GLY193      0.2280
     89  O         19.1240   10.6120   15.7610 O.2   193  GLY193     -0.2866
     90  N         18.8120    8.6550   21.0440 N.3   253  GLY253     -0.1210
     91  CA        18.9490   10.0010   20.5320 C.3   253  GLY253      0.1956
     92  C         18.3140   10.9550   21.5170 C.2   253  GLY253      0.2613
     93  O         17.4810   10.5480   22.3240 O.2   253  GLY253     -0.2717
     94  N         18.7190   12.2180   21.4890 N.am  254  THR254     -0.1938
     95  CA        18.1230   13.1860   22.3950 C.3   254  THR254      0.2028
     96  C         16.6410   13.3150   22.0460 C.2   254  THR254      0.2642
     97  O         15.7820   13.3150   22.9260 O.2   254  THR254     -0.2714
     98  CB        18.8120   14.5610   22.2800 C.3   254  THR254      0.1808
     99  OG1       20.1880   14.4290   22.6620 O.3   254  THR254     -0.2208
    100  CG2       18.1360   15.5870   23.2120 C.3   254  THR254      0.0379
    101  N         16.3510   13.3880   20.7520 N.am  255  ALA255     -0.1963
    102  CA        14.9780   13.5230   20.2680 C.3   255  ALA255      0.1728
    103  C         14.1750   12.2270   20.3780 C.2   255  ALA255      0.2616
    104  O         13.0520   12.2280   20.8760 O.2   255  ALA255     -0.2715
    105  CB        14.9880   14.0020   18.8180 C.3   255  ALA255      0.0334
    106  N         14.7650   11.1290   19.9090 N.am  256  ALA256     -0.1977
    107  CA        14.1300    9.8150   19.9160 C.3   256  ALA256      0.1597
    108  C         14.2830    9.0680   21.2380 C.2   256  ALA256      0.2287
    109  O         13.7350    7.9720   21.4050 O.2   256  ALA256     -0.2864
    110  CB        14.7090    8.9720   18.7920 C.3   256  ALA256      0.0319
@<TRIPOS>BOND
     1    77    76    2
     2    76    75    1
     3    75    74    1
     4    75    78    1
     5    78    79    1
     6    79    81   ar
     7    79    80   ar
     8    81    83   ar
     9    80    82   ar
    10    83    84   ar
    11    82    84   ar
    12    84    85    1
    13    86    87    1
    14    64    63    1
    15    10     8   ar
    16    10    11   ar
    17    87    88    1
    18     8     6   ar
    19    63    62   ar
    20    63    61   ar
    21    11     9   ar
    22    67    68    2
    23    67    66    1
    24    62    60   ar
    25    37    36    1
    26    61    59   ar
    27    66    65    1
    28    66    69    1
    29    88    89    2
    30     6     5    1
    31     6     7   ar
    32     9     7   ar
    33    56    55    2
    34    60    58   ar
    35     1     2    1
    36     5     2    1
    37    38    36    1
    38    36    35    2
    39    50    52   ar
    40    50    48   ar
    41    59    58   ar
    42    70    69    1
    43    70    71    1
    44    52    51   ar
    45    58    57    1
    46     2     3    1
    47    55    54    1
    48    73    72    1
    49    47    48   ar
    50    47    45   ar
    51    48    46   ar
    52    35    34    1
    53    34    33    1
    54    33    32    1
    55    72    71    1
    56    51    49   ar
    57     4     3    2
    58    54    57    1
    59    54    53    1
    60    45    44   ar
    61    46    49   ar
    62    46    44   ar
    63    27    26    1
    64    32    29    1
    65    44    43    1
    66   110   107    1
    67   105   102    1
    68    31    30    2
    69    25    26   ar
    70    25    23   ar
    71    26    24   ar
    72    30    29    1
    73    29    28    1
    74   106   107    1
    75   106   103   am
    76   107   108    1
    77    23    21   ar
    78    24    22   ar
    79    12    13    1
    80    43    40    1
    81   102   103    1
    82   102   101    1
    83   103   104    2
    84    13    14    1
    85    91    90    1
    86    91    92    1
    87    40    41    1
    88    40    39    1
    89   101    96   am
    90    21    22   ar
    91    21    20    1
    92    41    42    2
    93   108   109    2
    94    94    92   am
    95    94    95    1
    96    92    93    2
    97    20    17    1
    98    14    15    2
    99    96    95    1
   100    96    97    2
   101    98    95    1
   102    98    99    1
   103    98   100    1
   104    19    18    2
   105    18    17    1
   106    17    16    1
