@<TRIPOS>MOLECULE
tmp/1iyeB00.pdb
 213 203 0 0 0
SMALL
GASTEIGER

@<TRIPOS>ATOM
      1  N         22.7660  -24.8780    5.0130 N.3    33  PHE33      -0.1241
      2  CA        23.0170  -26.1910    5.5690 C.3    33  PHE33       0.1605
      3  C         23.8610  -26.1280    6.8250 C.2    33  PHE33       0.2264
      4  O         24.2310  -25.0520    7.2850 O.2    33  PHE33      -0.2867
      5  CB        23.6970  -27.0810    4.5170 C.3    33  PHE33       0.0534
      6  CG        25.0870  -26.6280    4.1270 C.ar   33  PHE33      -0.0203
      7  CD1       26.2120  -27.1920    4.7230 C.ar   33  PHE33      -0.0042
      8  CD2       25.2670  -25.6480    3.1570 C.ar   33  PHE33      -0.0042
      9  CE1       27.5000  -26.7870    4.3520 C.ar   33  PHE33      -0.0003
     10  CE2       26.5460  -25.2350    2.7800 C.ar   33  PHE33      -0.0003
     11  CZ        27.6650  -25.8090    3.3800 C.ar   33  PHE33      -0.0000
     12  N         26.7660  -28.6190    9.5140 N.3    35  GLY35      -0.1225
     13  CA        27.6720  -29.7320    9.6630 C.3    35  GLY35       0.1811
     14  C         27.6240  -30.0330   11.1410 C.2    35  GLY35       0.2280
     15  O         27.8400  -29.1380   11.9530 O.2    35  GLY35      -0.2866
     16  N         21.5100  -22.1530   14.1560 N.3    56  ARG56      -0.1245
     17  CA        22.2240  -21.4340   13.1050 C.3    56  ARG56       0.1563
     18  C         21.5810  -21.7560   11.7580 C.2    56  ARG56       0.2260
     19  O         21.4980  -20.8980   10.8760 O.2    56  ARG56      -0.2867
     20  CB        23.7050  -21.8200   13.0800 C.3    56  ARG56       0.0307
     21  CG        24.5040  -21.0090   12.0570 C.3    56  ARG56       0.0489
     22  CD        26.0070  -21.1990   12.1940 C.3    56  ARG56       0.2205
     23  NE        26.4450  -22.5370   11.8130 N.pl3  56  ARG56      -0.0865
     24  CZ        27.6860  -22.9820   11.9660 C.cat  56  ARG56       0.5346
     25  NH1       28.6140  -22.1920   12.4910 N.pl3  56  ARG56       0.1354
     26  NH2       28.0010  -24.2210   11.6100 N.pl3  56  ARG56       0.1354
     27  N         28.8880  -37.9430   10.9350 N.3    92  TYR92      -0.1241
     28  CA        28.7990  -36.5520   10.5190 C.3    92  TYR92       0.1605
     29  C         27.3720  -36.3750   10.0140 C.2    92  TYR92       0.2264
     30  O         26.8870  -37.1900    9.2300 O.2    92  TYR92      -0.2867
     31  CB        29.7790  -36.2660    9.3840 C.3    92  TYR92       0.0534
     32  CG        29.7240  -34.8410    8.8980 C.ar   92  TYR92      -0.0201
     33  CD1       30.4100  -33.8240    9.5680 C.ar   92  TYR92      -0.0009
     34  CD2       28.9760  -34.5030    7.7760 C.ar   92  TYR92      -0.0009
     35  CE1       30.3500  -32.4970    9.1200 C.ar   92  TYR92       0.0417
     36  CE2       28.9080  -33.1810    7.3210 C.ar   92  TYR92       0.0417
     37  CZ        29.5970  -32.1870    7.9950 C.ar   92  TYR92       0.1957
     38  OH        29.5360  -30.8890    7.5250 O.3    92  TYR92      -0.2866
     39  N         24.4580  -33.9340    8.1200 N.3    94  ARG94      -0.1245
     40  CA        24.2800  -32.8190    7.2050 C.3    94  ARG94       0.1563
     41  C         22.8260  -32.4060    6.9560 C.2    94  ARG94       0.2260
     42  O         22.1460  -32.9970    6.1130 O.2    94  ARG94      -0.2867
     43  CB        24.9580  -33.1450    5.8640 C.3    94  ARG94       0.0307
     44  CG        24.6730  -32.1630    4.7310 C.3    94  ARG94       0.0489
     45  CD        25.0420  -30.7350    5.1140 C.3    94  ARG94       0.2205
     46  NE        26.4750  -30.5730    5.3360 N.pl3  94  ARG94      -0.0865
     47  CZ        27.3780  -30.4620    4.3680 C.cat  94  ARG94       0.5346
     48  NH1       27.0050  -30.4930    3.0930 N.pl3  94  ARG94       0.1354
     49  NH2       28.6610  -30.3080    4.6740 N.pl3  94  ARG94       0.1354
     50  N         32.2980  -39.9460    8.9050 N.3   123  TRP123     -0.1241
     51  CA        33.2340  -39.0860    8.1770 C.3   123  TRP123      0.1605
     52  C         34.4840  -38.8440    9.0290 C.2   123  TRP123      0.2264
     53  O         34.3960  -38.3490   10.1570 O.2   123  TRP123     -0.2867
     54  CB        32.5500  -37.7570    7.8300 C.3   123  TRP123      0.0550
     55  CG        33.0650  -37.0760    6.5770 C.ar  123  TRP123      0.0003
     56  CD1       33.7900  -37.6460    5.5640 C.ar  123  TRP123      0.0946
     57  CD2       32.8220  -35.7170    6.1790 C.ar  123  TRP123      0.0152
     58  NE1       34.0070  -36.7240    4.5610 N.ar  123  TRP123     -0.2442
     59  CE2       33.4240  -35.5350    4.9150 C.ar  123  TRP123      0.0810
     60  CE3       32.1490  -34.6370    6.7690 C.ar  123  TRP123      0.0012
     61  CZ2       33.3720  -34.3130    4.2290 C.ar  123  TRP123      0.0191
     62  CZ3       32.0980  -33.4210    6.0830 C.ar  123  TRP123      0.0001
     63  CH2       32.7090  -33.2720    4.8270 C.ar  123  TRP123      0.0015
     64  N         38.7730  -34.2810    8.5810 N.3   126  TYR126     -0.1241
     65  CA        38.5750  -33.4460    7.4010 C.3   126  TYR126      0.1605
     66  C         39.8480  -33.1570    6.6130 C.2   126  TYR126      0.2264
     67  O         39.8460  -33.2010    5.3800 O.2   126  TYR126     -0.2867
     68  CB        37.9240  -32.1230    7.8190 C.3   126  TYR126      0.0534
     69  CG        37.4360  -31.2630    6.6720 C.ar  126  TYR126     -0.0201
     70  CD1       36.4590  -31.7280    5.7840 C.ar  126  TYR126     -0.0009
     71  CD2       37.9330  -29.9700    6.4860 C.ar  126  TYR126     -0.0009
     72  CE1       35.9870  -30.9200    4.7370 C.ar  126  TYR126      0.0417
     73  CE2       37.4720  -29.1570    5.4480 C.ar  126  TYR126      0.0417
     74  CZ        36.5020  -29.6340    4.5790 C.ar  126  TYR126      0.1957
     75  OH        36.0510  -28.8250    3.5610 O.3   126  TYR126     -0.2866
     76  N         37.7470  -13.6100    0.5810 N.3   145  ARG145     -0.1245
     77  CA        36.4320  -13.9400    1.1140 C.3   145  ARG145      0.1563
     78  C         35.4220  -12.8570    0.7500 C.2   145  ARG145      0.2260
     79  O         35.7780  -11.6910    0.5790 O.2   145  ARG145     -0.2867
     80  CB        36.4900  -14.0540    2.6390 C.3   145  ARG145      0.0307
     81  CG        37.2350  -15.2550    3.1660 C.3   145  ARG145      0.0489
     82  CD        36.2990  -16.4170    3.4400 C.3   145  ARG145      0.2205
     83  NE        36.1170  -17.2680    2.2760 N.pl3 145  ARG145     -0.0865
     84  CZ        35.6060  -18.4930    2.3240 C.cat 145  ARG145      0.5346
     85  NH1       35.2200  -19.0110    3.4820 N.pl3 145  ARG145      0.1354
     86  NH2       35.4970  -19.2080    1.2180 N.pl3 145  ARG145      0.1354
     87  N         25.4400  -19.9020    6.7330 N.3   156  LYS156     -0.1245
     88  CA        26.0770  -21.0400    6.0860 C.3   156  LYS156      0.1561
     89  C         25.1420  -21.4530    4.9420 C.2   156  LYS156      0.2260
     90  O         24.2540  -22.2960    5.1110 O.2   156  LYS156     -0.2867
     91  CB        26.2410  -22.1690    7.0950 C.3   156  LYS156      0.0271
     92  CG        27.1410  -23.2860    6.6540 C.3   156  LYS156      0.0035
     93  CD        27.5390  -24.1130    7.8570 C.3   156  LYS156      0.0206
     94  CE        28.3330  -25.3330    7.4500 C.3   156  LYS156      0.1093
     95  NZ        29.4940  -24.9860    6.6020 N.3   156  LYS156     -0.1314
     96  N         29.8460  -21.3260   -0.8810 N.3   161  TYR161     -0.1241
     97  CA        30.9630  -22.2040   -1.1360 C.3   161  TYR161      0.1605
     98  C         31.7060  -22.2090   -2.4580 C.2   161  TYR161      0.2264
     99  O         32.7020  -22.9170   -2.5950 O.2   161  TYR161     -0.2867
    100  CB        30.5810  -23.6110   -0.6770 C.3   161  TYR161      0.0534
    101  CG        30.4530  -23.6110    0.8260 C.ar  161  TYR161     -0.0201
    102  CD1       29.3660  -22.9910    1.4450 C.ar  161  TYR161     -0.0009
    103  CD2       31.4870  -24.0870    1.6330 C.ar  161  TYR161     -0.0009
    104  CE1       29.3160  -22.8310    2.8240 C.ar  161  TYR161      0.0417
    105  CE2       31.4480  -23.9300    3.0140 C.ar  161  TYR161      0.0417
    106  CZ        30.3600  -23.2990    3.6010 C.ar  161  TYR161      0.1957
    107  OH        30.3160  -23.1240    4.9650 O.3   161  TYR161     -0.2866
    108  N         34.8100  -20.9850   -1.2300 N.3   164  SER164     -0.1217
    109  CA        35.5520  -21.9870   -0.4860 C.3   164  SER164      0.1889
    110  C         36.1750  -23.0010   -1.4280 C.2   164  SER164      0.2288
    111  O         37.2120  -23.5740   -1.1200 O.2   164  SER164     -0.2866
    112  CB        34.6390  -22.6840    0.5220 C.3   164  SER164      0.2089
    113  OG        34.2160  -21.7650    1.5130 O.3   164  SER164     -0.2183
    114  N         39.3200  -16.6260    7.4200 N.3   190  GLU190     -0.1245
    115  CA        39.1170  -17.9920    7.8840 C.3   190  GLU190      0.1567
    116  C         39.6490  -18.9830    6.8480 C.2   190  GLU190      0.2260
    117  O         40.0170  -18.6020    5.7350 O.2   190  GLU190     -0.2867
    118  CB        37.6170  -18.2450    8.0890 C.3   190  GLU190      0.0388
    119  CG        36.8120  -18.0680    6.7970 C.3   190  GLU190      0.1160
    120  CD        35.3260  -18.3500    6.9400 C.2   190  GLU190      0.3649
    121  OE1       34.6030  -18.1450    5.9430 O.co2 190  GLU190     -0.2457
    122  OE2       34.8800  -18.7750    8.0280 O.co2 190  GLU190     -0.2457
    123  N         39.1560  -22.3100    4.3090 N.3   192  ALA192     -0.1231
    124  CA        38.0820  -22.5980    3.3560 C.3   192  ALA192      0.1694
    125  C         36.8760  -23.2540    4.0270 C.2   192  ALA192      0.2593
    126  O         35.7390  -23.0800    3.5880 O.2   192  ALA192     -0.2718
    127  CB        38.6060  -23.4940    2.2420 C.3   192  ALA192      0.0304
    128  N         37.1270  -24.0130    5.0880 N.am  193  GLY193     -0.1942
    129  CA        36.0370  -24.6780    5.7860 C.3   193  GLY193      0.2014
    130  C         36.3060  -24.7720    7.2750 C.2   193  GLY193      0.2639
    131  O         35.8200  -25.6760    7.9460 O.2   193  GLY193     -0.2714
    132  N         37.0690  -23.8160    7.7920 N.am  194  GLU194     -0.1963
    133  CA        37.4460  -23.7910    9.2020 C.3   194  GLU194      0.1733
    134  C         37.6860  -22.3490    9.6560 C.2   194  GLU194      0.2616
    135  O         37.8430  -21.4580    8.8250 O.2   194  GLU194     -0.2715
    136  CB        38.7490  -24.5800    9.4010 C.3   194  GLU194      0.0429
    137  CG        38.8330  -25.9220    8.6650 C.3   194  GLU194      0.1163
    138  CD        39.3280  -25.8030    7.2270 C.2   194  GLU194      0.3649
    139  OE1       39.3550  -24.6840    6.6750 O.co2 194  GLU194     -0.2457
    140  OE2       39.6900  -26.8430    6.6350 O.co2 194  GLU194     -0.2457
    141  N         37.6980  -22.1190   10.9680 N.am  195  ASN195     -0.1972
    142  CA        37.9930  -20.7930   11.4900 C.3   195  ASN195      0.1688
    143  C         39.4800  -20.8120   11.8300 C.2   195  ASN195      0.2292
    144  O         40.0560  -21.8810   12.0220 O.2   195  ASN195     -0.2864
    145  CB        37.1720  -20.4780   12.7350 C.3   195  ASN195      0.1181
    146  CG        35.7540  -20.0700   12.4020 C.2   195  ASN195      0.2629
    147  OD1       34.8100  -20.8300   12.6210 O.2   195  ASN195     -0.2716
    148  ND2       35.5970  -18.8640   11.8570 N.am  195  ASN195     -0.0877
    149  N         32.9040  -17.1080    9.2680 N.3   214  LEU214     -0.1245
    150  CA        31.6680  -17.7210    9.7400 C.3   214  LEU214      0.1561
    151  C         31.6990  -17.8000   11.2690 C.2   214  LEU214      0.2260
    152  O         32.7510  -18.0520   11.8590 O.2   214  LEU214     -0.2867
    153  CB        31.5210  -19.1380    9.1750 C.3   214  LEU214      0.0270
    154  CG        30.2190  -19.8690    9.5230 C.3   214  LEU214      0.0019
    155  CD1       29.0950  -19.3560    8.6270 C.3   214  LEU214      0.0001
    156  CD2       30.3970  -21.3670    9.3370 C.3   214  LEU214      0.0001
    157  N         31.7060  -19.7170   13.6280 N.3   216  GLY216     -0.1210
    158  CA        31.8730  -21.1210   13.9430 C.3   216  GLY216      0.1956
    159  C         31.4390  -21.5490   15.3280 C.2   216  GLY216      0.2612
    160  O         31.6620  -20.8440   16.3180 O.2   216  GLY216     -0.2717
    161  N         30.8150  -22.7200   15.3940 N.am  217  ILE217     -0.1965
    162  CA        30.3490  -23.2690   16.6540 C.3   217  ILE217      0.1727
    163  C         31.5090  -23.9500   17.3820 C.2   217  ILE217      0.2617
    164  O         31.5140  -24.0370   18.6110 O.2   217  ILE217     -0.2715
    165  CB        29.1660  -24.2430   16.4160 C.3   217  ILE217      0.0290
    166  CG1       27.9320  -23.4260   15.9970 C.3   217  ILE217      0.0022
    167  CG2       28.8720  -25.0470   17.6810 C.3   217  ILE217      0.0023
    168  CD1       26.7310  -24.2520   15.5560 C.3   217  ILE217      0.0001
    169  N         32.5000  -24.4190   16.6270 N.am  218  THR218     -0.1937
    170  CA        33.6680  -25.0310   17.2510 C.3   218  THR218      0.2028
    171  C         34.4840  -23.8530   17.7940 C.2   218  THR218      0.2642
    172  O         35.0180  -23.8930   18.9020 O.2   218  THR218     -0.2714
    173  CB        34.5160  -25.8300   16.2390 C.3   218  THR218      0.1808
    174  OG1       33.6740  -26.7170   15.4860 O.3   218  THR218     -0.2208
    175  CG2       35.5610  -26.6540   16.9760 C.3   218  THR218      0.0379
    176  N         34.5590  -22.7940   16.9920 N.am  219  ARG219     -0.1977
    177  CA        35.2550  -21.5650   17.3590 C.3   219  ARG219      0.1597
    178  C         34.7170  -21.0170   18.6840 C.2   219  ARG219      0.2287
    179  O         35.4810  -20.6990   19.6010 O.2   219  ARG219     -0.2864
    180  CB        35.0470  -20.5340   16.2480 C.3   219  ARG219      0.0334
    181  CG        35.4360  -19.1020   16.5810 C.3   219  ARG219      0.0492
    182  CD        34.9090  -18.1650   15.4900 C.3   219  ARG219      0.2205
    183  NE        35.3370  -16.7820   15.6670 N.pl3 219  ARG219     -0.0865
    184  CZ        34.8770  -15.9630   16.6030 C.cat 219  ARG219      0.5346
    185  NH1       33.9570  -16.3810   17.4660 N.pl3 219  ARG219      0.1354
    186  NH2       35.3350  -14.7190   16.6710 N.pl3 219  ARG219      0.1354
    187  N         39.7580  -24.5410   13.3500 N.3   252  SER252     -0.1202
    188  CA        38.6530  -25.1610   14.0730 C.3   252  SER252      0.2020
    189  C         37.4550  -25.3420   13.1500 C.2   252  SER252      0.2619
    190  O         37.2400  -24.5560   12.2220 O.2   252  SER252     -0.2717
    191  CB        38.2380  -24.2970   15.2720 C.3   252  SER252      0.2103
    192  OG        37.4840  -23.1630   14.8690 O.3   252  SER252     -0.2182
    193  N         36.6750  -26.3840   13.4110 N.am  253  GLY253     -0.1942
    194  CA        35.5000  -26.6440   12.6030 C.3   253  GLY253      0.2014
    195  C         34.8610  -27.9540   13.0090 C.2   253  GLY253      0.2640
    196  O         35.4700  -28.7580   13.7010 O.2   253  GLY253     -0.2714
    197  N         33.6280  -28.1760   12.5810 N.am  254  THR254     -0.1936
    198  CA        32.9470  -29.4150   12.9250 C.3   254  THR254      0.2028
    199  C         33.6920  -30.5960   12.3060 C.2   254  THR254      0.2642
    200  O         34.0560  -31.5500   12.9960 O.2   254  THR254     -0.2714
    201  CB        31.4920  -29.3900   12.4200 C.3   254  THR254      0.1808
    202  OG1       30.8010  -28.3030   13.0450 O.3   254  THR254     -0.2208
    203  CG2       30.7870  -30.6990   12.7410 C.3   254  THR254      0.0379
    204  N         33.9320  -30.5200   11.0040 N.am  255  ALA255     -0.1963
    205  CA        34.6370  -31.5810   10.2970 C.3   255  ALA255      0.1728
    206  C         36.1170  -31.6620   10.6800 C.2   255  ALA255      0.2616
    207  O         36.6520  -32.7550   10.9050 O.2   255  ALA255     -0.2715
    208  CB        34.4930  -31.3760    8.7910 C.3   255  ALA255      0.0334
    209  N         36.7760  -30.5060   10.7640 N.am  256  ALA256     -0.1977
    210  CA        38.2000  -30.4570   11.0980 C.3   256  ALA256      0.1597
    211  C         38.5000  -30.4570   12.5930 C.2   256  ALA256      0.2287
    212  O         39.6670  -30.5320   12.9920 O.2   256  ALA256     -0.2864
    213  CB        38.8450  -29.2260   10.4450 C.3   256  ALA256      0.0319
@<TRIPOS>BOND
     1    99    98    2
     2    98    97    1
     3   110   111    2
     4   110   109    1
     5   108   109    1
     6    97    96    1
     7    97   100    1
     8   100   101    1
     9   109   112    1
    10   112   113    1
    11    79    78    2
    12    76    77    1
    13    78    77    1
    14   101   102   ar
    15   101   103   ar
    16    77    80    1
    17    86    84    1
    18   102   104   ar
    19   103   105   ar
    20   127   124    1
    21    83    84    2
    22    83    82    1
    23    84    85    1
    24    80    81    1
    25    10     8   ar
    26    10    11   ar
    27   104   106   ar
    28   105   106   ar
    29    48    47    1
    30     8     6   ar
    31    81    82    1
    32   124   125    1
    33   124   123    1
    34    11     9   ar
    35    75    74    1
    36   126   125    2
    37   106   107    1
    38   125   128   am
    39     6     5    1
    40     6     7   ar
    41    61    63   ar
    42    61    59   ar
    43     9     7   ar
    44    47    49    1
    45    47    46    2
    46     5     2    1
    47    58    59   ar
    48    58    56   ar
    49    74    72   ar
    50    74    73   ar
    51    44    45    1
    52    44    43    1
    53    72    70   ar
    54    63    62   ar
    55    59    57   ar
    56    89    90    2
    57    89    88    1
    58     1     2    1
    59   128   129    1
    60    45    46    1
    61    67    66    2
    62    73    71   ar
    63    56    55   ar
    64     2     3    1
    65   117   116    2
    66    70    69   ar
    67   129   130    1
    68    43    40    1
    69   121   120   ar
    70    62    60   ar
    71    88    87    1
    72    88    91    1
    73    42    41    2
    74    57    55   ar
    75    57    60   ar
    76    71    69   ar
    77    55    54    1
    78    95    94    1
    79    66    65    1
    80   140   138   ar
    81    92    91    1
    82    92    93    1
    83    69    68    1
    84   139   138   ar
    85   119   120    1
    86   119   118    1
    87     3     4    2
    88   116   115    1
    89   120   122   ar
    90    41    40    1
    91    40    39    1
    92   138   137    1
    93   130   132   am
    94   130   131    2
    95    36    34   ar
    96    36    37   ar
    97    65    68    1
    98    65    64    1
    99   114   115    1
   100    94    93    1
   101    38    37    1
   102    34    32   ar
   103   132   133    1
   104    54    51    1
   105   115   118    1
   106    37    35   ar
   107    51    50    1
   108    51    52    1
   109   155   154    1
   110   137   136    1
   111   208   205    1
   112   135   134    2
   113    32    31    1
   114    32    33   ar
   115    52    53    2
   116    35    33   ar
   117   153   154    1
   118   153   150    1
   119   133   136    1
   120   133   134    1
   121    30    29    2
   122   149   150    1
   123   156   154    1
   124    31    28    1
   125    12    13    1
   126   134   141   am
   127    13    14    1
   128   150   151    1
   129    29    28    1
   130   205   206    1
   131   205   204    1
   132   213   210    1
   133    28    27    1
   134   206   209   am
   135   206   207    2
   136   209   210    1
   137    19    18    2
   138   141   142    1
   139   204   199   am
   140   210   211    1
   141    14    15    2
   142   151   152    2
   143   142   143    1
   144   142   145    1
   145    26    24    1
   146    18    17    1
   147    23    24    2
   148    23    22    1
   149   143   144    2
   150   148   146   am
   151    24    25    1
   152    21    22    1
   153    21    20    1
   154   190   189    2
   155   199   198    1
   156   199   200    2
   157   146   147    2
   158   146   145    1
   159   201   203    1
   160   201   198    1
   161   201   202    1
   162   197   198    1
   163   197   195   am
   164   211   212    2
   165   194   195    1
   166   194   193    1
   167   195   196    2
   168    20    17    1
   169    17    16    1
   170   189   193   am
   171   189   188    1
   172   187   188    1
   173   157   158    1
   174   158   159    1
   175   188   191    1
   176   192   191    1
   177   159   161   am
   178   159   160    2
   179   161   162    1
   180   174   173    1
   181   182   183    1
   182   182   181    1
   183   168   166    1
   184   183   184    2
   185   166   165    1
   186   173   175    1
   187   173   170    1
   188   180   181    1
   189   180   177    1
   190   165   162    1
   191   165   167    1
   192   184   186    1
   193   184   185    1
   194   169   170    1
   195   169   163   am
   196   162   163    1
   197   176   177    1
   198   176   171   am
   199   170   171    1
   200   177   178    1
   201   163   164    2
   202   171   172    2
   203   178   179    2
