@<TRIPOS>MOLECULE
tmp/1iylB00.pdb
 246 238 0 0 0
SMALL
GASTEIGER

@<TRIPOS>ATOM
      1  N         25.4200   73.0780   46.6370 N.3    36  TYR36      -0.1241
      2  CA        26.5000   72.5530   47.4730 C.3    36  TYR36       0.1605
      3  C         25.9790   71.8420   48.7160 C.2    36  TYR36       0.2264
      4  O         25.5800   72.4750   49.6980 O.2    36  TYR36      -0.2867
      5  CB        27.4670   73.6720   47.8700 C.3    36  TYR36       0.0534
      6  CG        28.8120   73.1600   48.3340 C.ar   36  TYR36      -0.0201
      7  CD1       28.9380   72.4490   49.5210 C.ar   36  TYR36      -0.0009
      8  CD2       29.9600   73.3850   47.5780 C.ar   36  TYR36      -0.0009
      9  CE1       30.1780   71.9720   49.9460 C.ar   36  TYR36       0.0417
     10  CE2       31.2100   72.9150   47.9920 C.ar   36  TYR36       0.0417
     11  CZ        31.3150   72.2080   49.1780 C.ar   36  TYR36       0.1957
     12  OH        32.5490   71.7310   49.5950 O.3    36  TYR36      -0.2866
     13  N         23.5900   71.3270   54.3420 N.3    39  ASP39      -0.1239
     14  CA        23.9830   70.8050   55.6540 C.3    39  ASP39       0.1674
     15  C         23.0810   69.6410   56.1080 C.2    39  ASP39       0.2266
     16  O         23.4520   68.4720   55.9840 O.2    39  ASP39      -0.2867
     17  CB        23.9460   71.9280   56.7050 C.3    39  ASP39       0.1410
     18  CG        22.6500   72.7380   56.6550 C.2    39  ASP39       0.3668
     19  OD1       22.6210   73.7810   55.9520 O.co2  39  ASP39      -0.2456
     20  OD2       21.6540   72.3220   57.3010 O.co2  39  ASP39      -0.2456
     21  N         19.7790   70.9640   57.7770 N.3    41  ASP41      -0.1239
     22  CA        18.6910   71.7560   58.3430 C.3    41  ASP41       0.1674
     23  C         17.9220   72.5040   57.2690 C.2    41  ASP41       0.2266
     24  O         17.0900   73.3650   57.5740 O.2    41  ASP41      -0.2867
     25  CB        19.2210   72.7550   59.3730 C.3    41  ASP41       0.1410
     26  CG        19.5940   72.0920   60.7060 C.2    41  ASP41       0.3668
     27  OD1       19.6050   72.8260   61.7350 O.co2  41  ASP41      -0.2456
     28  OD2       19.8720   70.8580   60.7210 O.co2  41  ASP41      -0.2456
     29  N         20.2450   76.5470   55.4960 N.3    44  PHE44      -0.1241
     30  CA        21.5600   77.1670   55.4030 C.3    44  PHE44       0.1605
     31  C         22.1810   77.1110   53.9910 C.2    44  PHE44       0.2264
     32  O         22.2170   76.0620   53.3470 O.2    44  PHE44      -0.2867
     33  CB        22.5140   76.5040   56.4080 C.3    44  PHE44       0.0534
     34  CG        22.0560   76.6010   57.8320 C.ar   44  PHE44      -0.0203
     35  CD1       21.4540   75.5110   58.4540 C.ar   44  PHE44      -0.0042
     36  CD2       22.1800   77.7990   58.5430 C.ar   44  PHE44      -0.0042
     37  CE1       20.9760   75.6060   59.7650 C.ar   44  PHE44      -0.0003
     38  CE2       21.7070   77.9100   59.8530 C.ar   44  PHE44      -0.0003
     39  CZ        21.1020   76.8090   60.4660 C.ar   44  PHE44      -0.0000
     40  N         25.6900   78.5790   51.8120 N.3    46  PHE46      -0.1241
     41  CA        26.9430   79.2980   51.8460 C.3    46  PHE46       0.1605
     42  C         26.7500   80.5670   51.0180 C.2    46  PHE46       0.2264
     43  O         26.1650   80.5210   49.9500 O.2    46  PHE46      -0.2867
     44  CB        28.0770   78.4310   51.2840 C.3    46  PHE46       0.0534
     45  CG        28.4310   77.2420   52.1510 C.ar   46  PHE46      -0.0203
     46  CD1       27.8530   76.0120   51.9420 C.ar   46  PHE46      -0.0042
     47  CD2       29.3180   77.3600   53.1940 C.ar   46  PHE46      -0.0042
     48  CE1       28.1540   74.9210   52.7670 C.ar   46  PHE46      -0.0003
     49  CE2       29.6100   76.2650   54.0080 C.ar   46  PHE46      -0.0003
     50  CZ        29.0240   75.0540   53.7890 C.ar   46  PHE46      -0.0000
     51  N         28.5740   82.6950   48.9490 N.3    48  TYR48      -0.1241
     52  CA        29.8070   82.9410   48.2350 C.3    48  TYR48       0.1605
     53  C         29.7770   84.3620   47.7490 C.2    48  TYR48       0.2264
     54  O         28.7090   84.9590   47.6450 O.2    48  TYR48      -0.2867
     55  CB        29.9370   81.9900   47.0540 C.3    48  TYR48       0.0534
     56  CG        29.8440   80.5470   47.4590 C.ar   48  TYR48      -0.0201
     57  CD1       28.6510   79.8490   47.3320 C.ar   48  TYR48      -0.0009
     58  CD2       30.9400   79.8930   48.0190 C.ar   48  TYR48      -0.0009
     59  CE1       28.5510   78.5380   47.7520 C.ar   48  TYR48       0.0417
     60  CE2       30.8530   78.5880   48.4440 C.ar   48  TYR48       0.0417
     61  CZ        29.6590   77.9080   48.3100 C.ar   48  TYR48       0.1957
     62  OH        29.5630   76.5970   48.7300 O.3    48  TYR48      -0.2866
     63  N         35.4710   85.9790   47.4000 N.3    52  PHE52      -0.1241
     64  CA        35.8360   84.7290   48.0470 C.3    52  PHE52       0.1605
     65  C         36.4610   83.8400   46.9810 C.2    52  PHE52       0.2264
     66  O         37.6480   83.5590   47.0140 O.2    52  PHE52      -0.2867
     67  CB        34.5860   84.0660   48.5870 C.3    52  PHE52       0.0534
     68  CG        34.8340   82.7500   49.2390 C.ar   52  PHE52      -0.0203
     69  CD1       35.6070   82.6680   50.3900 C.ar   52  PHE52      -0.0042
     70  CD2       34.3040   81.5820   48.7010 C.ar   52  PHE52      -0.0042
     71  CE1       35.8590   81.4410   51.0000 C.ar   52  PHE52      -0.0003
     72  CE2       34.5500   80.3480   49.3050 C.ar   52  PHE52      -0.0003
     73  CZ        35.3300   80.2800   50.4570 C.ar   52  PHE52      -0.0000
     74  N         38.2260   70.6190   45.5650 N.3   104  ASN104     -0.1225
     75  CA        37.2560   71.3440   46.3470 C.3   104  ASN104      0.1785
     76  C         36.1130   71.8210   45.4580 C.2   104  ASN104      0.2597
     77  O         36.1920   71.7610   44.2360 O.2   104  ASN104     -0.2718
     78  CB        37.9980   72.5330   46.9680 C.3   104  ASN104      0.1169
     79  CG        37.3960   73.0020   48.2690 C.2   104  ASN104      0.2627
     80  OD1       37.0790   72.1980   49.1560 O.2   104  ASN104     -0.2716
     81  ND2       37.2550   74.3220   48.4060 N.am  104  ASN104     -0.0877
     82  N         35.0370   72.2850   46.0680 N.am  105  PHE105     -0.1976
     83  CA        33.9150   72.7980   45.3030 C.3   105  PHE105      0.1639
     84  C         33.2090   71.7660   44.4550 C.2   105  PHE105      0.2290
     85  O         32.4870   72.1060   43.5300 O.2   105  PHE105     -0.2864
     86  CB        34.3780   73.9610   44.4310 C.3   105  PHE105      0.0560
     87  CG        34.8910   75.1250   45.2190 C.ar  105  PHE105     -0.0200
     88  CD1       34.0060   75.9590   45.9060 C.ar  105  PHE105     -0.0042
     89  CD2       36.2590   75.3750   45.3030 C.ar  105  PHE105     -0.0042
     90  CE1       34.4760   77.0200   46.6640 C.ar  105  PHE105     -0.0003
     91  CE2       36.7360   76.4300   46.0580 C.ar  105  PHE105     -0.0003
     92  CZ        35.8450   77.2570   46.7410 C.ar  105  PHE105     -0.0000
     93  N         33.2230   68.7480   63.6450 N.3   154  TYR154     -0.1227
     94  CA        32.8320   70.1610   63.7250 C.3   154  TYR154      0.1736
     95  C         32.9770   70.7550   65.1330 C.2   154  TYR154      0.2595
     96  O         32.5640   70.1520   66.1100 O.2   154  TYR154     -0.2718
     97  CB        31.3670   70.3370   63.3040 C.3   154  TYR154      0.0548
     98  CG        31.0700   70.2000   61.8190 C.ar  154  TYR154     -0.0200
     99  CD1       31.3980   69.0200   61.1480 C.ar  154  TYR154     -0.0009
    100  CD2       30.3710   71.2310   61.1080 C.ar  154  TYR154     -0.0009
    101  CE1       31.0470   68.8260   59.8080 C.ar  154  TYR154      0.0417
    102  CE2       30.0030   71.0630   59.7580 C.ar  154  TYR154      0.0417
    103  CZ        30.3560   69.8370   59.1240 C.ar  154  TYR154      0.1957
    104  OH        30.0030   69.6270   57.8120 O.3   154  TYR154     -0.2866
    105  N         33.5570   71.9400   65.2390 N.am  155  GLN155     -0.1965
    106  CA        33.6780   72.5740   66.5440 C.3   155  GLN155      0.1733
    107  C         33.1560   73.9860   66.4030 C.2   155  GLN155      0.2616
    108  O         33.6840   74.7890   65.6280 O.2   155  GLN155     -0.2715
    109  CB        35.1230   72.6020   67.0540 C.3   155  GLN155      0.0408
    110  CG        35.7300   71.2310   67.3620 C.3   155  GLN155      0.0908
    111  CD        34.9680   70.4360   68.4090 C.2   155  GLN155      0.2608
    112  OE1       34.6850   69.2510   68.2150 O.2   155  GLN155     -0.2717
    113  NE2       34.6470   71.0750   69.5280 N.am  155  GLN155     -0.0878
    114  N         32.0950   74.2660   67.1520 N.am  156  HIS156     -0.1973
    115  CA        31.4490   75.5700   67.1430 C.3   156  HIS156      0.1656
    116  C         31.7510   76.3150   68.4490 C.2   156  HIS156      0.2291
    117  O         32.0610   75.6970   69.4680 O.2   156  HIS156     -0.2864
    118  CB        29.9420   75.3780   66.9940 C.3   156  HIS156      0.0771
    119  CG        29.5650   74.3470   65.9780 C.ar  156  HIS156      0.0820
    120  ND1       29.6770   74.5600   64.6220 N.ar  156  HIS156     -0.2267
    121  CD2       29.0670   73.0970   66.1210 C.ar  156  HIS156      0.1154
    122  CE1       29.2570   73.4880   63.9740 C.ar  156  HIS156      0.1986
    123  NE2       28.8820   72.5850   64.8600 N.ar  156  HIS156     -0.2212
    124  N         19.6520   76.4490   65.5450 N.3   169  PHE169     -0.1241
    125  CA        20.9600   75.8220   65.6800 C.3   169  PHE169      0.1605
    126  C         21.3070   75.4330   67.1160 C.2   169  PHE169      0.2264
    127  O         20.9200   74.3620   67.5700 O.2   169  PHE169     -0.2867
    128  CB        22.0400   76.7430   65.1120 C.3   169  PHE169      0.0534
    129  CG        23.4090   76.1170   65.0780 C.ar  169  PHE169     -0.0203
    130  CD1       23.5960   74.8520   64.5040 C.ar  169  PHE169     -0.0042
    131  CD2       24.5020   76.7780   65.6410 C.ar  169  PHE169     -0.0042
    132  CE1       24.8470   74.2490   64.4940 C.ar  169  PHE169     -0.0003
    133  CE2       25.7610   76.1890   65.6370 C.ar  169  PHE169     -0.0003
    134  CZ        25.9330   74.9170   65.0620 C.ar  169  PHE169     -0.0000
    135  N         39.2210   82.5050   58.1740 N.3   264  TYR264     -0.1241
    136  CA        38.5520   83.1240   57.0500 C.3   264  TYR264      0.1605
    137  C         37.0660   83.1570   57.3470 C.2   264  TYR264      0.2264
    138  O         36.5530   82.2890   58.0510 O.2   264  TYR264     -0.2867
    139  CB        38.8650   82.3640   55.7430 C.3   264  TYR264      0.0534
    140  CG        38.5410   80.8760   55.7380 C.ar  264  TYR264     -0.0201
    141  CD1       37.2360   80.4220   55.5440 C.ar  264  TYR264     -0.0009
    142  CD2       39.5340   79.9260   55.9600 C.ar  264  TYR264     -0.0009
    143  CE1       36.9300   79.0630   55.5770 C.ar  264  TYR264      0.0417
    144  CE2       39.2320   78.5620   55.9990 C.ar  264  TYR264      0.0417
    145  CZ        37.9270   78.1400   55.8110 C.ar  264  TYR264      0.1957
    146  OH        37.6080   76.8050   55.9090 O.3   264  TYR264     -0.2866
    147  N         33.1790   82.9580   56.1450 N.3   266  LEU266     -0.1245
    148  CA        32.2540   82.4680   55.1380 C.3   266  LEU266      0.1561
    149  C         30.8590   82.3950   55.7540 C.2   266  LEU266      0.2260
    150  O         30.5170   81.4140   56.4250 O.2   266  LEU266     -0.2867
    151  CB        32.6720   81.0850   54.6690 C.3   266  LEU266      0.0270
    152  CG        31.8050   80.6030   53.4970 C.3   266  LEU266      0.0019
    153  CD1       32.2110   81.3800   52.2650 C.3   266  LEU266      0.0001
    154  CD2       31.9800   79.1130   53.2530 C.3   266  LEU266      0.0001
    155  N         26.5950   82.3320   56.2780 N.3   268  PHE268     -0.1241
    156  CA        25.5050   81.4340   55.8990 C.3   268  PHE268      0.1605
    157  C         24.2050   82.2050   55.8700 C.2   268  PHE268      0.2264
    158  O         23.6100   82.4490   56.9140 O.2   268  PHE268     -0.2867
    159  CB        25.3460   80.3010   56.9150 C.3   268  PHE268      0.0534
    160  CG        26.4260   79.2700   56.8560 C.ar  268  PHE268     -0.0203
    161  CD1       27.7010   79.5920   56.3730 C.ar  268  PHE268     -0.0042
    162  CD2       26.1990   77.9880   57.3370 C.ar  268  PHE268     -0.0042
    163  CE1       28.7330   78.6580   56.3750 C.ar  268  PHE268     -0.0003
    164  CE2       27.2240   77.0410   57.3450 C.ar  268  PHE268     -0.0003
    165  CZ        28.4920   77.3830   56.8640 C.ar  268  PHE268     -0.0000
    166  N         24.3430   84.9720   59.0650 N.3   279  LEU279     -0.1245
    167  CA        24.9060   84.2910   60.2240 C.3   279  LEU279      0.1561
    168  C         26.4080   84.2050   60.0520 C.2   279  LEU279      0.2260
    169  O         26.9010   83.2960   59.4110 O.2   279  LEU279     -0.2867
    170  CB        24.3120   82.8830   60.3440 C.3   279  LEU279      0.0270
    171  CG        24.8040   81.9510   61.4640 C.3   279  LEU279      0.0019
    172  CD1       24.5250   82.5660   62.8410 C.3   279  LEU279      0.0001
    173  CD2       24.1130   80.6040   61.3340 C.3   279  LEU279      0.0001
    174  N         30.0940   83.2670   60.2510 N.3   281  ILE281     -0.1245
    175  CA        30.7340   82.0140   60.6560 C.3   281  ILE281      0.1561
    176  C         32.2190   81.9470   60.3220 C.2   281  ILE281      0.2260
    177  O         32.5900   81.6920   59.1860 O.2   281  ILE281     -0.2867
    178  CB        30.0340   80.8290   59.9890 C.3   281  ILE281      0.0252
    179  CG1       28.5430   80.8920   60.3290 C.3   281  ILE281      0.0019
    180  CG2       30.7030   79.5120   60.4140 C.3   281  ILE281      0.0019
    181  CD1       27.7100   79.7780   59.7850 C.3   281  ILE281      0.0001
    182  N         36.2130   80.5070   60.4540 N.3   283  TYR283     -0.1241
    183  CA        36.8620   79.2110   60.4310 C.3   283  TYR283      0.1605
    184  C         38.3140   79.4180   60.8080 C.2   283  TYR283      0.2264
    185  O         39.0590   80.1200   60.1210 O.2   283  TYR283     -0.2867
    186  CB        36.7760   78.5650   59.0480 C.3   283  TYR283      0.0534
    187  CG        35.3710   78.3110   58.5680 C.ar  283  TYR283     -0.0201
    188  CD1       34.6120   79.3300   57.9890 C.ar  283  TYR283     -0.0009
    189  CD2       34.7800   77.0720   58.7330 C.ar  283  TYR283     -0.0009
    190  CE1       33.3020   79.1200   57.5940 C.ar  283  TYR283      0.0417
    191  CE2       33.4690   76.8540   58.3450 C.ar  283  TYR283      0.0417
    192  CZ        32.7400   77.8790   57.7830 C.ar  283  TYR283      0.1957
    193  OH        31.4320   77.6450   57.4520 O.3   283  TYR283     -0.2866
    194  N         29.3930   83.0730   65.3350 N.3   319  VAL319     -0.1245
    195  CA        29.8470   81.7350   65.7310 C.3   319  VAL319      0.1561
    196  C         31.2110   81.4530   65.1000 C.2   319  VAL319      0.2260
    197  O         31.4830   81.8840   63.9840 O.2   319  VAL319     -0.2867
    198  CB        28.8290   80.6130   65.3210 C.3   319  VAL319      0.0252
    199  CG1       28.5840   80.6300   63.8500 C.3   319  VAL319      0.0019
    200  CG2       29.3480   79.2590   65.7560 C.3   319  VAL319      0.0019
    201  N         34.2950   78.5330   64.1420 N.3   321  ASN321     -0.1225
    202  CA        34.4430   77.1190   63.8170 C.3   321  ASN321      0.1785
    203  C         35.8760   76.6340   63.5490 C.2   321  ASN321      0.2597
    204  O         36.7540   77.3930   63.1300 O.2   321  ASN321     -0.2718
    205  CB        33.5300   76.7720   62.6370 C.3   321  ASN321      0.1169
    206  CG        32.0690   76.6160   63.0580 C.2   321  ASN321      0.2627
    207  OD1       31.7790   76.2350   64.2030 O.2   321  ASN321     -0.2716
    208  ND2       31.1410   76.8820   62.1250 N.am  321  ASN321     -0.0877
    209  N         36.1060   75.3580   63.8210 N.am  322  CYS322     -0.1956
    210  CA        37.4110   74.7560   63.5990 C.3   322  CYS322      0.1843
    211  C         37.1840   73.2710   63.6670 C.2   322  CYS322      0.2625
    212  O         36.0440   72.8300   63.8490 O.2   322  CYS322     -0.2714
    213  CB        38.4090   75.1750   64.6720 C.3   322  CYS322      0.0997
    214  SG        38.0620   74.5500   66.3460 S.3   322  CYS322     -0.0797
    215  N         38.2630   72.5060   63.5310 N.am  323  LEU323     -0.1977
    216  CA        38.1700   71.0540   63.5420 C.3   323  LEU323      0.1596
    217  C         38.9830   70.4100   64.6470 C.2   323  LEU323      0.2287
    218  O         39.9770   70.9750   65.1170 O.2   323  LEU323     -0.2864
    219  CB        38.6160   70.4890   62.1880 C.3   323  LEU323      0.0297
    220  CG        37.7320   70.7670   60.9630 C.3   323  LEU323      0.0022
    221  CD1       38.4280   70.2820   59.7100 C.3   323  LEU323      0.0001
    222  CD2       36.3840   70.0680   61.1290 C.3   323  LEU323      0.0001
    223  N         34.3220   65.1360   59.2660 N.3   344  LEU344     -0.1245
    224  CA        35.0680   65.3950   58.0450 C.3   344  LEU344      0.1561
    225  C         36.1060   64.2980   57.8440 C.2   344  LEU344      0.2260
    226  O         36.7060   63.8060   58.8050 O.2   344  LEU344     -0.2867
    227  CB        35.7700   66.7530   58.1540 C.3   344  LEU344      0.0270
    228  CG        35.8470   67.5980   56.8840 C.3   344  LEU344      0.0019
    229  CD1       34.4520   67.8880   56.4350 C.3   344  LEU344      0.0001
    230  CD2       36.6180   68.8890   57.1410 C.3   344  LEU344      0.0001
    231  N         42.0560   72.6090   54.6840 N.3   379  LEU379     -0.1231
    232  CA        41.4800   72.8400   53.3700 C.3   379  LEU379      0.1693
    233  C         40.0410   73.2670   53.5610 C.2   379  LEU379      0.2591
    234  O         39.2670   72.5960   54.2410 O.2   379  LEU379     -0.2718
    235  CB        41.5340   71.5710   52.5420 C.3   379  LEU379      0.0284
    236  CG        41.9290   70.3500   53.3630 C.3   379  LEU379      0.0019
    237  CD1       40.8760   70.0520   54.4370 C.3   379  LEU379      0.0001
    238  CD2       42.1040   69.1810   52.4270 C.3   379  LEU379      0.0001
    239  N         39.7060   74.4050   52.9720 N.am  380  LEU380     -0.1980
    240  CA        38.3760   74.9680   53.0460 C.3   380  LEU380      0.1596
    241  C         37.3710   74.0020   52.4480 C.2   380  LEU380      0.2287
    242  O         36.8660   74.3070   51.3480 O.2   380  LEU380     -0.2864
    243  CB        38.3470   76.2960   52.2880 C.3   380  LEU380      0.0297
    244  CG        39.2390   76.3710   51.0440 C.3   380  LEU380      0.0022
    245  CD1       38.7110   77.4030   50.0860 C.3   380  LEU380      0.0001
    246  CD2       40.6660   76.6850   51.4460 C.3   380  LEU380      0.0001
@<TRIPOS>BOND
     1    85    84    2
     2    77    76    2
     3    86    87    1
     4    86    83    1
     5    84    83    1
     6    87    89   ar
     7    87    88   ar
     8    89    91   ar
     9    83    82    1
    10    76    82   am
    11    76    75    1
    12    74    75    1
    13    88    90   ar
    14    91    92   ar
    15    75    78    1
    16     1     2    1
    17    90    92   ar
    18    78    79    1
    19    65    66    2
    20    65    64    1
    21    55    56    1
    22    55    52    1
    23    57    56   ar
    24    57    59   ar
    25    63    64    1
    26    56    58   ar
    27     2     5    1
    28     2     3    1
    29     8    10   ar
    30     8     6   ar
    31    54    53    2
    32    53    52    1
    33    59    61   ar
    34     5     6    1
    35    10    11   ar
    36    58    60   ar
    37    64    67    1
    38    52    51    1
    39    79    81   am
    40    79    80    2
    41    61    60   ar
    42    61    62    1
    43     6     7   ar
    44    67    68    1
    45    70    68   ar
    46    70    72   ar
    47     3     4    2
    48    11    12    1
    49    11     9   ar
    50    68    69   ar
    51    72    73   ar
    52     7     9   ar
    53    43    42    2
    54   245   244    1
    55    69    71   ar
    56    73    71   ar
    57    42    41    1
    58   244   246    1
    59   244   243    1
    60    44    41    1
    61    44    45    1
    62   242   241    2
    63    40    41    1
    64    46    45   ar
    65    46    48   ar
    66    45    47   ar
    67   153   152    1
    68   243   240    1
    69   238   236    1
    70   241   240    1
    71   235   236    1
    72   235   232    1
    73    48    50   ar
    74   239   240    1
    75   239   233   am
    76    47    49   ar
    77   154   152    1
    78    32    31    2
    79   236   237    1
    80   232   233    1
    81   232   231    1
    82   152   151    1
    83   233   234    2
    84    50    49   ar
    85    31    30    1
    86    13    14    1
    87   151   148    1
    88   148   149    1
    89   148   147    1
    90    30    29    1
    91    30    33    1
    92   141   143   ar
    93   141   140   ar
    94   143   145   ar
    95    14    15    1
    96    14    17    1
    97   140   139    1
    98   140   142   ar
    99   139   136    1
   100   149   150    2
   101   145   146    1
   102   145   144   ar
   103   157   156    1
   104   157   158    2
   105   156   155    1
   106   156   159    1
   107    19    18   ar
   108   142   144   ar
   109    16    15    2
   110   161   163   ar
   111   161   160   ar
   112   163   165   ar
   113    33    34    1
   114   229   228    1
   115    18    17    1
   116    18    20   ar
   117   160   159    1
   118   160   162   ar
   119   165   164   ar
   120   228   230    1
   121   228   227    1
   122   136   137    1
   123   136   135    1
   124    23    24    2
   125    23    22    1
   126   162   164   ar
   127   137   138    2
   128   193   192    1
   129   190   192   ar
   130   190   188   ar
   131    21    22    1
   132   192   191   ar
   133   104   103    1
   134    34    35   ar
   135    34    36   ar
   136   225   224    1
   137   225   226    2
   138   188   187   ar
   139   224   227    1
   140   224   223    1
   141    22    25    1
   142   191   189   ar
   143    35    37   ar
   144    36    38   ar
   145   187   189   ar
   146   187   186    1
   147   186   183    1
   148   166   167    1
   149   103   102   ar
   150   103   101   ar
   151   177   176    2
   152    25    26    1
   153   169   168    2
   154   221   220    1
   155   102   100   ar
   156    37    39   ar
   157   181   179    1
   158   101    99   ar
   159    38    39   ar
   160   178   179    1
   161   178   180    1
   162   178   175    1
   163   168   167    1
   164   185   184    2
   165   167   170    1
   166   174   175    1
   167   176   175    1
   168   170   171    1
   169   183   182    1
   170   183   184    1
   171    26    28   ar
   172    26    27   ar
   173   220   222    1
   174   220   219    1
   175   100    98   ar
   176    99    98   ar
   177   173   171    1
   178   171   172    1
   179    98    97    1
   180   208   206   am
   181   219   216    1
   182   205   206    1
   183   205   202    1
   184   206   207    2
   185   204   203    2
   186    97    94    1
   187   215   216    1
   188   215   211   am
   189   216   217    1
   190   203   202    1
   191   203   209   am
   192   210   211    1
   193   210   209    1
   194   210   213    1
   195    93    94    1
   196   211   212    2
   197    94    95    1
   198   202   201    1
   199   199   198    1
   200   122   120   ar
   201   122   123   ar
   202   197   196    2
   203   132   130   ar
   204   132   134   ar
   205   130   129   ar
   206   120   119   ar
   207   217   218    2
   208   213   214    1
   209   123   121   ar
   210   134   133   ar
   211   129   128    1
   212   129   131   ar
   213   196   195    1
   214   128   125    1
   215    95   105   am
   216    95    96    2
   217   105   106    1
   218   198   195    1
   219   198   200    1
   220   194   195    1
   221   124   125    1
   222   108   107    2
   223   133   131   ar
   224   125   126    1
   225   119   121   ar
   226   119   118    1
   227   107   106    1
   228   107   114   am
   229   106   109    1
   230   118   115    1
   231   109   110    1
   232   126   127    2
   233   115   114    1
   234   115   116    1
   235   110   111    1
   236   112   111    2
   237   111   113   am
   238   116   117    2
