@<TRIPOS>MOLECULE
tmp/1iyqA00.pdb
 134 127 0 0 0
SMALL
GASTEIGER

@<TRIPOS>ATOM
      1  N         41.6950   22.1260   22.4840 N.3    43  SER43      -0.1217
      2  CA        40.3760   21.4930   22.4830 C.3    43  SER43       0.1889
      3  C         39.2370   22.2110   21.7650 C.2    43  SER43       0.2288
      4  O         38.1760   21.6190   21.5490 O.2    43  SER43      -0.2866
      5  CB        39.9400   21.1990   23.9130 C.3    43  SER43       0.2089
      6  OG        40.5190   19.9770   24.3040 O.3    43  SER43      -0.2183
      7  N         44.9630   11.0690   28.4120 N.3    77  ASN77      -0.1225
      8  CA        45.1660   11.9530   29.5550 C.3    77  ASN77       0.1785
      9  C         43.8730   12.4190   30.2190 C.2    77  ASN77       0.2597
     10  O         43.7770   12.4440   31.4510 O.2    77  ASN77      -0.2718
     11  CB        45.9800   13.1710   29.1200 C.3    77  ASN77       0.1169
     12  CG        45.2500   14.0210   28.1100 C.2    77  ASN77       0.2627
     13  OD1       44.6800   13.5090   27.1450 O.2    77  ASN77      -0.2716
     14  ND2       45.2670   15.3340   28.3210 N.am   77  ASN77      -0.0877
     15  N         42.8830   12.7880   29.4080 N.am   78  TYR78      -0.1976
     16  CA        41.6100   13.2690   29.9420 C.3    78  TYR78       0.1639
     17  C         40.4040   12.5710   29.3120 C.2    78  TYR78       0.2290
     18  O         40.0540   12.8280   28.1570 O.2    78  TYR78      -0.2864
     19  CB        41.5070   14.7880   29.7400 C.3    78  TYR78       0.0560
     20  CG        40.4330   15.4700   30.5660 C.ar   78  TYR78      -0.0198
     21  CD1       40.4280   15.3730   31.9610 C.ar   78  TYR78      -0.0009
     22  CD2       39.4360   16.2360   29.9560 C.ar   78  TYR78      -0.0009
     23  CE1       39.4550   16.0280   32.7330 C.ar   78  TYR78       0.0417
     24  CE2       38.4570   16.8960   30.7180 C.ar   78  TYR78       0.0417
     25  CZ        38.4730   16.7880   32.1070 C.ar   78  TYR78       0.1957
     26  OH        37.5150   17.4320   32.8680 O.3    78  TYR78      -0.2866
     27  N         32.4660   18.1300   28.3510 N.3   102  TYR102     -0.1227
     28  CA        33.4680   17.7420   29.3350 C.3   102  TYR102      0.1736
     29  C         34.8450   17.7290   28.6920 C.2   102  TYR102      0.2596
     30  O         35.8620   17.5510   29.3720 O.2   102  TYR102     -0.2718
     31  CB        33.1410   16.3680   29.9200 C.3   102  TYR102      0.0548
     32  CG        31.8460   16.3380   30.7010 C.ar  102  TYR102     -0.0200
     33  CD1       30.6430   16.0200   30.0790 C.ar  102  TYR102     -0.0009
     34  CD2       31.8250   16.6290   32.0630 C.ar  102  TYR102     -0.0009
     35  CE1       29.4570   15.9900   30.7890 C.ar  102  TYR102      0.0417
     36  CE2       30.6410   16.6020   32.7820 C.ar  102  TYR102      0.0417
     37  CZ        29.4630   16.2830   32.1440 C.ar  102  TYR102      0.1957
     38  OH        28.2900   16.2630   32.8550 O.3   102  TYR102     -0.2866
     39  N         34.8640   17.9590   27.3830 N.am  103  SER103     -0.1952
     40  CA        36.0930   17.9590   26.6090 C.3   103  SER103      0.1924
     41  C         36.8410   16.6660   26.9140 C.2   103  SER103      0.2314
     42  O         37.9880   16.6780   27.3640 O.2   103  SER103     -0.2863
     43  CB        36.9620   19.1760   26.9460 C.3   103  SER103      0.2116
     44  OG        37.9580   19.3600   25.9500 O.3   103  SER103     -0.2180
     45  N         38.9540   13.7820   25.9740 N.3   105  ASN105     -0.1240
     46  CA        39.9310   13.5480   24.9040 C.3   105  ASN105      0.1653
     47  C         39.7610   12.2160   24.1800 C.2   105  ASN105      0.2266
     48  O         39.9470   12.1310   22.9560 O.2   105  ASN105     -0.2867
     49  CB        41.3610   13.6630   25.4440 C.3   105  ASN105      0.1155
     50  CG        41.7790   15.1030   25.6890 C.2   105  ASN105      0.2627
     51  OD1       41.3450   16.0130   24.9830 O.2   105  ASN105     -0.2716
     52  ND2       42.6390   15.3140   26.6820 N.am  105  ASN105     -0.0877
     53  N         46.2390   13.7090   22.9560 N.3   140  PRO140     -0.2116
     54  CA        46.3780   15.1020   23.3860 C.3   140  PRO140      0.1372
     55  C         47.4660   15.9160   22.6800 C.2   140  PRO140      0.2244
     56  O         47.6010   17.1120   22.9470 O.2   140  PRO140     -0.2868
     57  CB        46.6670   14.9540   24.8660 C.3   140  PRO140      0.0268
     58  CG        47.5720   13.7650   24.8650 C.3   140  PRO140      0.0207
     59  CD        46.8960   12.8040   23.9170 C.3   140  PRO140      0.0892
     60  N         47.6080   17.3330   19.9840 N.3   142  LEU142     -0.1231
     61  CA        47.1360   18.5210   19.2830 C.3   142  LEU142      0.1693
     62  C         47.2070   19.7170   20.2330 C.2   142  LEU142      0.2592
     63  O         46.9810   20.8550   19.8200 O.2   142  LEU142     -0.2718
     64  CB        45.6980   18.3200   18.7860 C.3   142  LEU142      0.0284
     65  CG        44.6190   17.9540   19.8190 C.3   142  LEU142      0.0019
     66  CD1       44.2110   19.1640   20.6810 C.3   142  LEU142      0.0001
     67  CD2       43.4180   17.4210   19.0710 C.3   142  LEU142      0.0001
     68  N         47.5300   19.4500   21.5010 N.am  143  ASN143     -0.1974
     69  CA        47.6170   20.4990   22.5240 C.3   143  ASN143      0.1688
     70  C         49.0250   20.9820   22.8940 C.2   143  ASN143      0.2292
     71  O         49.2240   21.5700   23.9630 O.2   143  ASN143     -0.2864
     72  CB        46.9120   20.0370   23.8040 C.3   143  ASN143      0.1181
     73  CG        45.4440   19.7350   23.5850 C.2   143  ASN143      0.2629
     74  OD1       44.6530   20.6260   23.2660 O.2   143  ASN143     -0.2716
     75  ND2       45.0720   18.4690   23.7510 N.am  143  ASN143     -0.0877
     76  N         32.9750   23.0640   31.3870 N.3   189  THR189     -0.1218
     77  CA        34.3470   23.5290   31.6030 C.3   189  THR189      0.1862
     78  C         34.7080   25.0110   31.3850 C.2   189  THR189      0.2287
     79  O         35.8420   25.4020   31.6530 O.2   189  THR189     -0.2866
     80  CB        35.3070   22.7000   30.7320 C.3   189  THR189      0.1770
     81  OG1       35.0300   22.9700   29.3540 O.3   189  THR189     -0.2211
     82  CG2       35.1150   21.2070   30.9840 C.3   189  THR189      0.0375
     83  N         33.0160   26.2440   24.0500 N.3   207  LYS207     -0.1231
     84  CA        33.9830   25.1490   24.0560 C.3   207  LYS207      0.1693
     85  C         35.3480   25.7390   24.4180 C.2   207  LYS207      0.2593
     86  O         35.9040   26.5340   23.6530 O.2   207  LYS207     -0.2718
     87  CB        34.0940   24.4670   22.6860 C.3   207  LYS207      0.0285
     88  CG        35.0910   23.2990   22.6960 C.3   207  LYS207      0.0035
     89  CD        34.5650   22.1470   23.5460 C.3   207  LYS207      0.0206
     90  CE        35.6640   21.1820   23.9610 C.3   207  LYS207      0.1093
     91  NZ        36.4670   21.7170   25.0910 N.3   207  LYS207     -0.1314
     92  N         35.8710   25.3540   25.5830 N.am  208  THR208     -0.1939
     93  CA        37.1680   25.8310   26.0640 C.3   208  THR208      0.2028
     94  C         38.3350   25.0840   25.4120 C.2   208  THR208      0.2643
     95  O         38.1390   24.1970   24.5750 O.2   208  THR208     -0.2714
     96  CB        37.2910   25.6640   27.5970 C.3   208  THR208      0.1808
     97  OG1       36.8640   24.3500   27.9690 O.3   208  THR208     -0.2208
     98  CG2       36.4430   26.6960   28.3310 C.3   208  THR208      0.0379
     99  N         39.5500   25.4610   25.8040 N.am  209  GLY209     -0.1939
    100  CA        40.7550   24.8310   25.2870 C.3   209  GLY209      0.2014
    101  C         41.9420   25.1390   26.1880 C.2   209  GLY209      0.2640
    102  O         42.0750   26.2650   26.6650 O.2   209  GLY209     -0.2714
    103  N         42.7880   24.1420   26.4460 N.am  210  SER210     -0.1935
    104  CA        43.9820   24.3270   27.2790 C.3   210  SER210      0.2055
    105  C         45.1530   23.5540   26.6830 C.2   210  SER210      0.2643
    106  O         44.9940   22.4140   26.2500 O.2   210  SER210     -0.2714
    107  CB        43.7410   23.8280   28.7010 C.3   210  SER210      0.2130
    108  OG        42.6670   24.5100   29.3110 O.3   210  SER210     -0.2179
    109  N         46.3290   24.1690   26.6580 N.am  211  GLY211     -0.1954
    110  CA        47.4880   23.4860   26.1130 C.3   211  GLY211      0.1869
    111  C         48.7910   24.0110   26.6760 C.2   211  GLY211      0.2309
    112  O         48.7970   24.8290   27.6020 O.2   211  GLY211     -0.2863
    113  N         47.8020   28.6970   32.8310 N.3   245  ARG245     -0.1245
    114  CA        46.6870   29.1350   31.9880 C.3   245  ARG245      0.1563
    115  C         46.1310   30.4060   32.6040 C.2   245  ARG245      0.2260
    116  O         46.2260   30.6120   33.8180 O.2   245  ARG245     -0.2867
    117  CB        45.5790   28.0780   31.9020 C.3   245  ARG245      0.0307
    118  CG        45.9160   26.9060   30.9960 C.3   245  ARG245      0.0489
    119  CD        47.0020   26.0580   31.6270 C.3   245  ARG245      0.2205
    120  NE        47.6960   25.2070   30.6680 N.pl3 245  ARG245     -0.0865
    121  CZ        48.6580   24.3500   30.9990 C.cat 245  ARG245      0.5346
    122  NH1       49.0380   24.2290   32.2690 N.pl3 245  ARG245      0.1354
    123  NH2       49.2430   23.6190   30.0580 N.pl3 245  ARG245      0.1354
    124  N         42.7020   31.8650   32.2660 N.3   247  ARG247     -0.1245
    125  CA        41.3150   31.9840   31.8590 C.3   247  ARG247      0.1563
    126  C         40.7970   33.3810   32.1710 C.2   247  ARG247      0.2260
    127  O         40.0040   33.9470   31.4120 O.2   247  ARG247     -0.2867
    128  CB        40.4630   30.9280   32.5520 C.3   247  ARG247      0.0307
    129  CG        40.2510   29.7060   31.6940 C.3   247  ARG247      0.0489
    130  CD        41.1210   28.5480   32.1120 C.3   247  ARG247      0.2205
    131  NE        40.7480   28.0380   33.4290 N.pl3 247  ARG247     -0.0865
    132  CZ        40.8070   26.7550   33.7740 C.cat 247  ARG247      0.5346
    133  NH1       40.4540   26.3790   34.9940 N.pl3 247  ARG247      0.1354
    134  NH2       41.2050   25.8430   32.8970 N.pl3 247  ARG247      0.1354
@<TRIPOS>BOND
     1    64    61    1
     2    64    65    1
     3    67    65    1
     4    61    60    1
     5    61    62    1
     6    65    66    1
     7    63    62    2
     8    62    68   am
     9    68    69    1
    10     4     3    2
    11     3     2    1
    12     2     1    1
    13     2     5    1
    14    69    70    1
    15    69    72    1
    16    55    56    2
    17    55    54    1
    18    87    88    1
    19    87    84    1
    20    88    89    1
    21    70    71    2
    22    48    47    2
    23    53    54    1
    24    53    59    1
    25    74    73    2
    26    54    57    1
    27    89    90    1
    28    73    75   am
    29    73    72    1
    30    86    85    2
    31     5     6    1
    32    59    58    1
    33    90    91    1
    34    83    84    1
    35    84    85    1
    36    47    46    1
    37    85    92   am
    38    95    94    2
    39    58    57    1
    40    46    49    1
    41    46    45    1
    42    51    50    2
    43   100    99    1
    44   100   101    1
    45    94    99   am
    46    94    93    1
    47    49    50    1
    48    92    93    1
    49    50    52   am
    50    44    43    1
    51    93    96    1
    52   110   109    1
    53   110   111    1
    54   101   103   am
    55   101   102    2
    56   106   105    2
    57   103   104    1
    58    40    41    1
    59    40    43    1
    60    40    39    1
    61   109   105   am
    62   111   112    2
    63   105   104    1
    64    41    42    2
    65    13    12    2
    66   104   107    1
    67    39    29   am
    68    96    97    1
    69    96    98    1
    70    12    14   am
    71    12    11    1
    72    18    17    2
    73    27    28    1
    74     7     8    1
    75    29    28    1
    76    29    30    2
    77   107   108    1
    78    11     8    1
    79    17    16    1
    80    28    31    1
    81    81    80    1
    82    15    16    1
    83    15     9   am
    84     8     9    1
    85    19    16    1
    86    19    20    1
    87    31    32    1
    88    22    20   ar
    89    22    24   ar
    90   123   121    1
    91    33    32   ar
    92    33    35   ar
    93     9    10    2
    94    20    21   ar
    95   120   121    2
    96   120   119    1
    97    32    34   ar
    98    24    25   ar
    99    80    82    1
   100    80    77    1
   101    35    37   ar
   102   118   119    1
   103   118   117    1
   104   121   122    1
   105    78    77    1
   106    78    79    2
   107    76    77    1
   108   127   126    2
   109   129   130    1
   110   129   128    1
   111   125   126    1
   112   125   124    1
   113   125   128    1
   114   117   114    1
   115    21    23   ar
   116   114   115    1
   117   114   113    1
   118    34    36   ar
   119    25    23   ar
   120    25    26    1
   121   130   131    1
   122    37    36   ar
   123    37    38    1
   124   115   116    2
   125   134   132    1
   126   131   132    2
   127   132   133    1
