@<TRIPOS>MOLECULE
tmp/1iz2A00.pdb
 136 132 0 0 0
SMALL
GASTEIGER

@<TRIPOS>ATOM
      1  N        -34.1580  104.8690   31.1690 N.3   183  GLU183     -0.1245
      2  CA       -33.5760  106.1630   31.5350 C.3   183  GLU183      0.1567
      3  C        -32.2380  105.9850   32.2090 C.2   183  GLU183      0.2260
      4  O        -32.0070  105.0000   32.8940 O.2   183  GLU183     -0.2867
      5  CB       -34.4800  106.9760   32.4670 C.3   183  GLU183      0.0388
      6  CG       -35.8820  107.1890   31.9500 C.3   183  GLU183      0.1160
      7  CD       -36.4620  108.5410   32.3390 C.2   183  GLU183      0.3649
      8  OE1      -36.4250  108.9060   33.5390 O.co2 183  GLU183     -0.2457
      9  OE2      -36.9710  109.2350   31.4310 O.co2 183  GLU183     -0.2457
     10  N        -38.3600  103.3460   33.5120 N.3   197  MET197     -0.1245
     11  CA       -39.0780  104.4110   34.1820 C.3   197  MET197      0.1570
     12  C        -40.5240  104.4180   33.6890 C.2   197  MET197      0.2261
     13  O        -40.7770  104.5090   32.4870 O.2   197  MET197     -0.2867
     14  CB       -38.3940  105.7410   33.8600 C.3   197  MET197      0.0387
     15  CG       -38.9680  106.9600   34.5710 C.3   197  MET197      0.0595
     16  SD       -38.9350  106.8280   36.3730 S.3   197  MET197     -0.1393
     17  CE       -37.1910  106.9520   36.7030 C.3   197  MET197      0.0692
     18  N        -52.3930  114.6340   44.4320 N.3   206  ILE206     -0.1245
     19  CA       -51.1110  115.1430   44.8880 C.3   206  ILE206      0.1561
     20  C        -51.3560  116.3370   45.8150 C.2   206  ILE206      0.2260
     21  O        -52.4940  116.7710   45.9940 O.2   206  ILE206     -0.2867
     22  CB       -50.2460  115.5720   43.6680 C.3   206  ILE206      0.0252
     23  CG1      -48.7560  115.4470   43.9950 C.3   206  ILE206      0.0019
     24  CG2      -50.5620  117.0110   43.2780 C.3   206  ILE206      0.0019
     25  CD1      -47.8390  115.7530   42.8130 C.3   206  ILE206      0.0001
     26  N        -43.5160  116.9690   48.3400 N.3   215  TRP215     -0.1241
     27  CA       -44.7770  116.6920   47.6630 C.3   215  TRP215      0.1605
     28  C        -45.2970  115.3400   48.1280 C.2   215  TRP215      0.2264
     29  O        -44.5240  114.3990   48.3090 O.2   215  TRP215     -0.2867
     30  CB       -44.5940  116.6740   46.1500 C.3   215  TRP215      0.0550
     31  CG       -44.4230  118.0390   45.5320 C.ar  215  TRP215      0.0003
     32  CD1      -43.2470  118.6760   45.2570 C.ar  215  TRP215      0.0946
     33  CD2      -45.4670  118.9130   45.0720 C.ar  215  TRP215      0.0152
     34  NE1      -43.4910  119.8860   44.6480 N.ar  215  TRP215     -0.2442
     35  CE2      -44.8430  120.0570   44.5220 C.ar  215  TRP215      0.0810
     36  CE3      -46.8660  118.8380   45.0670 C.ar  215  TRP215      0.0012
     37  CZ2      -45.5680  121.1180   43.9760 C.ar  215  TRP215      0.0191
     38  CZ3      -47.5890  119.8980   44.5220 C.ar  215  TRP215      0.0001
     39  CH2      -46.9350  121.0210   43.9840 C.ar  215  TRP215      0.0015
     40  N        -48.0760  112.2900   47.3540 N.3   217  LEU217     -0.1245
     41  CA       -48.9250  111.6380   46.3690 C.3   217  LEU217      0.1561
     42  C        -49.6000  110.4150   46.9640 C.2   217  LEU217      0.2260
     43  O        -48.9860  109.6690   47.7130 O.2   217  LEU217     -0.2867
     44  CB       -48.0760  111.2100   45.1800 C.3   217  LEU217      0.0270
     45  CG       -48.6540  110.0560   44.3800 C.3   217  LEU217      0.0019
     46  CD1      -49.8250  110.5410   43.5460 C.3   217  LEU217      0.0001
     47  CD2      -47.5640  109.4740   43.5020 C.3   217  LEU217      0.0001
     48  N        -46.6920  108.3360   48.7550 N.3   229  PHE229     -0.1241
     49  CA       -45.3160  108.6420   48.3760 C.3   229  PHE229      0.1605
     50  C        -44.9680  110.0680   48.8180 C.2   229  PHE229      0.2264
     51  O        -45.8200  110.9540   48.8030 O.2   229  PHE229     -0.2867
     52  CB       -45.1250  108.5120   46.8650 C.3   229  PHE229      0.0534
     53  CG       -45.2820  107.1090   46.3420 C.ar  229  PHE229     -0.0203
     54  CD1      -46.5490  106.5730   46.1030 C.ar  229  PHE229     -0.0042
     55  CD2      -44.1600  106.3330   46.0510 C.ar  229  PHE229     -0.0042
     56  CE1      -46.6990  105.2800   45.5730 C.ar  229  PHE229     -0.0003
     57  CE2      -44.2930  105.0320   45.5190 C.ar  229  PHE229     -0.0003
     58  CZ       -45.5630  104.5110   45.2800 C.ar  229  PHE229     -0.0000
     59  N        -42.0250  113.0490   48.1520 N.3   231  LEU231     -0.1245
     60  CA       -40.8570  113.4960   47.3970 C.3   231  LEU231      0.1561
     61  C        -40.3020  114.7620   48.0510 C.2   231  LEU231      0.2260
     62  O        -40.7980  115.8570   47.7980 O.2   231  LEU231     -0.2867
     63  CB       -41.2420  113.7940   45.9490 C.3   231  LEU231      0.0270
     64  CG       -40.1230  114.2410   45.0090 C.3   231  LEU231      0.0019
     65  CD1      -39.1100  113.1130   44.7880 C.3   231  LEU231      0.0001
     66  CD2      -40.7450  114.6550   43.7030 C.3   231  LEU231      0.0001
     67  N        -47.6980  114.8800   35.4990 N.3   262  SER262     -0.1202
     68  CA       -46.9950  113.8120   34.7910 C.3   262  SER262      0.2020
     69  C        -46.1740  113.0460   35.8100 C.2   262  SER262      0.2619
     70  O        -45.1370  113.5270   36.2790 O.2   262  SER262     -0.2717
     71  CB       -46.0640  114.3770   33.7120 C.3   262  SER262      0.2103
     72  OG       -45.2670  113.3470   33.1380 O.3   262  SER262     -0.2182
     73  N        -46.6450  111.8520   36.1540 N.am  263  LEU263     -0.1965
     74  CA       -45.9570  111.0300   37.1340 C.3   263  LEU263      0.1728
     75  C        -44.8890  110.1630   36.4910 C.2   263  LEU263      0.2616
     76  O        -45.1100  109.5550   35.4450 O.2   263  LEU263     -0.2715
     77  CB       -46.9620  110.1490   37.8850 C.3   263  LEU263      0.0311
     78  CG       -46.4020  109.2250   38.9660 C.3   263  LEU263      0.0022
     79  CD1      -45.6500  110.0280   40.0210 C.3   263  LEU263      0.0001
     80  CD2      -47.5400  108.4510   39.5790 C.3   263  LEU263      0.0001
     81  N        -43.7230  110.1460   37.1330 N.am  264  HIS264     -0.1959
     82  CA       -42.5650  109.3610   36.7200 C.3   264  HIS264      0.1787
     83  C        -42.2070  108.4840   37.9070 C.2   264  HIS264      0.2620
     84  O        -41.7310  108.9840   38.9170 O.2   264  HIS264     -0.2715
     85  CB       -41.3560  110.2520   36.4290 C.3   264  HIS264      0.0785
     86  CG       -41.3440  110.8410   35.0560 C.ar  264  HIS264      0.0821
     87  ND1      -42.2500  111.7950   34.6440 N.ar  264  HIS264     -0.2267
     88  CD2      -40.5330  110.6080   33.9970 C.ar  264  HIS264      0.1154
     89  CE1      -41.9970  112.1250   33.3900 C.ar  264  HIS264      0.1986
     90  NE2      -40.9600  111.4180   32.9730 N.ar  264  HIS264     -0.2212
     91  N        -42.4340  107.1840   37.7940 N.am  265  LEU265     -0.1964
     92  CA       -42.1150  106.2630   38.8810 C.3   265  LEU265      0.1713
     93  C        -41.3060  105.1360   38.2740 C.2   265  LEU265      0.2458
     94  O        -41.7390  104.4980   37.3240 O.2   265  LEU265     -0.2730
     95  CB       -43.3960  105.6960   39.5070 C.3   265  LEU265      0.0310
     96  CG       -43.2510  105.0080   40.8650 C.3   265  LEU265      0.0022
     97  CD1      -42.9530  106.0590   41.9310 C.3   265  LEU265      0.0001
     98  CD2      -44.5100  104.2690   41.2000 C.3   265  LEU265      0.0001
     99  N        -40.1150  104.8740   38.8170 N.am  266  PRO266     -0.2727
    100  CA       -39.2520  103.8070   38.3020 C.3   266  PRO266      0.1402
    101  C        -39.7660  102.4010   38.6200 C.2   266  PRO266      0.2269
    102  O        -40.4630  102.2100   39.6180 O.2   266  PRO266     -0.2865
    103  CB       -37.9070  104.1030   38.9760 C.3   266  PRO266      0.0296
    104  CG       -38.3200  104.6760   40.3030 C.3   266  PRO266      0.0237
    105  CD       -39.4850  105.5850   39.9470 C.3   266  PRO266      0.0939
    106  N        -29.6220  109.2260   43.3850 N.3   343  PHE343     -0.1241
    107  CA       -29.9710  109.8520   42.1190 C.3   343  PHE343      0.1605
    108  C        -30.5910  111.2360   42.3350 C.2   343  PHE343      0.2264
    109  O        -31.4850  111.6640   41.5970 O.2   343  PHE343     -0.2867
    110  CB       -30.8880  108.9320   41.2810 C.3   343  PHE343      0.0534
    111  CG       -32.1430  108.4710   41.9880 C.ar  343  PHE343     -0.0203
    112  CD1      -32.9450  107.4790   41.4120 C.ar  343  PHE343     -0.0042
    113  CD2      -32.5400  109.0290   43.2020 C.ar  343  PHE343     -0.0042
    114  CE1      -34.1220  107.0520   42.0290 C.ar  343  PHE343     -0.0003
    115  CE2      -33.7160  108.6090   43.8300 C.ar  343  PHE343     -0.0003
    116  CZ       -34.5080  107.6160   43.2380 C.ar  343  PHE343     -0.0000
    117  N        -32.8980  112.8670   43.6440 N.3   345  LYS345     -0.1245
    118  CA       -34.2880  113.0340   44.0670 C.3   345  LYS345      0.1561
    119  C        -34.8540  111.7590   44.6840 C.2   345  LYS345      0.2260
    120  O        -35.6260  111.0480   44.0460 O.2   345  LYS345     -0.2867
    121  CB       -35.1790  113.4460   42.8800 C.3   345  LYS345      0.0271
    122  CG       -34.8000  114.7590   42.1740 C.3   345  LYS345      0.0035
    123  CD       -33.7390  114.5510   41.0850 C.3   345  LYS345      0.0206
    124  CE       -33.6000  115.7790   40.1720 C.3   345  LYS345      0.1093
    125  NZ       -32.6280  115.5800   39.0410 N.3   345  LYS345     -0.1314
    126  N        -37.0640  109.3360   47.4530 N.3   347  PHE347     -0.1241
    127  CA       -38.4220  109.4430   47.9690 C.3   347  PHE347      0.1605
    128  C        -38.7030  108.3770   49.0180 C.2   347  PHE347      0.2264
    129  O        -38.0630  107.3270   49.0510 O.2   347  PHE347     -0.2867
    130  CB       -39.4840  109.4180   46.8330 C.3   347  PHE347      0.0534
    131  CG       -39.6240  108.0970   46.1270 C.ar  347  PHE347     -0.0203
    132  CD1      -40.3790  107.0680   46.6850 C.ar  347  PHE347     -0.0042
    133  CD2      -39.0100  107.8870   44.8910 C.ar  347  PHE347     -0.0042
    134  CE1      -40.5270  105.8370   46.0240 C.ar  347  PHE347     -0.0003
    135  CE2      -39.1450  106.6600   44.2090 C.ar  347  PHE347     -0.0003
    136  CZ       -39.9090  105.6310   44.7790 C.ar  347  PHE347     -0.0000
@<TRIPOS>BOND
     1     1     2    1
     2     9     7   ar
     3     2     3    1
     4     2     5    1
     5     6     7    1
     6     6     5    1
     7     3     4    2
     8     7     8   ar
     9    13    12    2
    10    90    89   ar
    11    90    88   ar
    12    72    71    1
    13    89    87   ar
    14    10    11    1
    15    12    11    1
    16    71    68    1
    17    14    11    1
    18    14    15    1
    19    88    86   ar
    20    15    16    1
    21    87    86   ar
    22    68    67    1
    23    68    69    1
    24    86    85    1
    25    76    75    2
    26    69    73   am
    27    69    70    2
    28    73    74    1
    29    16    17    1
    30    85    82    1
    31    75    81   am
    32    75    74    1
    33    82    81    1
    34    82    83    1
    35    74    77    1
    36    94    93    2
    37    91    83   am
    38    91    92    1
    39    77    78    1
    40    83    84    2
    41    93    99   am
    42    93    92    1
    43   100   101    1
    44   100    99    1
    45   100   103    1
    46   101   102    2
    47    99   105    1
    48    92    95    1
    49    78    80    1
    50    78    79    1
    51   103   104    1
    52   125   124    1
    53    95    96    1
    54   105   104    1
    55   124   123    1
    56    96    98    1
    57    96    97    1
    58   123   122    1
    59   110   111    1
    60   110   107    1
    61   112   111   ar
    62   112   114   ar
    63   109   108    2
    64   111   113   ar
    65   114   116   ar
    66   107   108    1
    67   107   106    1
    68   122   121    1
    69    25    23    1
    70   121   118    1
    71   113   115   ar
    72   116   115   ar
    73    24    22    1
    74    47    45    1
    75    46    45    1
    76   117   118    1
    77    22    23    1
    78    22    19    1
    79    66    64    1
    80    37    39   ar
    81    37    35   ar
    82    39    38   ar
    83   120   119    2
    84   118   119    1
    85   135   136   ar
    86   135   133   ar
    87    45    44    1
    88    18    19    1
    89    38    36   ar
    90    35    34   ar
    91    35    33   ar
    92    34    32   ar
    93   136   134   ar
    94    65    64    1
    95    19    20    1
    96   133   131   ar
    97    64    63    1
    98    36    33   ar
    99    33    31   ar
   100    44    41    1
   101    32    31   ar
   102    58    57   ar
   103    58    56   ar
   104    57    55   ar
   105    31    30    1
   106    56    54   ar
   107    20    21    2
   108    63    60    1
   109   134   132   ar
   110    55    53   ar
   111    54    53   ar
   112   131   132   ar
   113   131   130    1
   114    30    27    1
   115    53    52    1
   116    41    42    1
   117    41    40    1
   118   130   127    1
   119    52    49    1
   120    42    43    2
   121    60    61    1
   122    60    59    1
   123   126   127    1
   124    27    28    1
   125    27    26    1
   126    62    61    2
   127   127   128    1
   128    28    29    2
   129    49    48    1
   130    49    50    1
   131    51    50    2
   132   128   129    2
