@<TRIPOS>MOLECULE
tmp/1izhA00.pdb
 105 98 0 0 0
SMALL
GASTEIGER

@<TRIPOS>ATOM
      1  N         26.4950   23.8910    6.0230 N.3     8  ARG8       -0.1301
      2  CA        25.2720   24.5480    6.4710 C.3     8  ARG8        0.1248
      3  C         25.6050   25.9680    6.9450 C.3     8  ARG8        0.2009
      4  O         26.6370   26.1860    7.7030 O.3     8  ARG8       -0.2188
      5  CB        24.6450   23.8010    7.6140 C.3     8  ARG8        0.0254
      6  CG        24.0180   22.5000    7.2140 C.3     8  ARG8        0.0485
      7  CD        23.4370   21.7760    8.3370 C.3     8  ARG8        0.2205
      8  NE        22.5910   20.6600    7.9210 N.pl3   8  ARG8       -0.0865
      9  CZ        21.6610   20.1040    8.7140 C.cat   8  ARG8        0.5346
     10  NH1       20.9010   19.1280    8.2540 N.pl3   8  ARG8        0.1354
     11  NH2       21.4840   20.5050    9.9750 N.pl3   8  ARG8        0.1354
     12  N         20.3340   28.2330   11.8560 N.3    23  LEU23      -0.1245
     13  CA        20.5800   27.9980   10.4550 C.3    23  LEU23       0.1561
     14  C         19.9460   29.1300    9.6620 C.2    23  LEU23       0.2260
     15  O         18.7750   29.4040    9.8870 O.2    23  LEU23      -0.2867
     16  CB        19.9180   26.6400   10.0870 C.3    23  LEU23       0.0270
     17  CG        20.0150   26.1730    8.6570 C.3    23  LEU23       0.0019
     18  CD1       21.4730   25.9870    8.2060 C.3    23  LEU23       0.0001
     19  CD2       19.1730   24.8300    8.4700 C.3    23  LEU23       0.0001
     20  N         18.0360   30.2480    6.7840 N.3    25  ASP25      -0.1239
     21  CA        17.2380   29.3460    5.9790 C.3    25  ASP25       0.1674
     22  C         16.2230   30.0540    5.0650 C.2    25  ASP25       0.2266
     23  O         15.1000   30.3780    5.4430 O.2    25  ASP25      -0.2867
     24  CB        16.5570   28.3450    6.8770 C.3    25  ASP25       0.1410
     25  CG        15.7950   27.2590    6.0610 C.2    25  ASP25       0.3668
     26  OD1       15.3180   26.3540    6.7100 O.co2  25  ASP25      -0.2456
     27  OD2       15.7080   27.2460    4.8140 O.co2  25  ASP25      -0.2456
     28  N         14.5540   28.8010    2.7410 N.3    27  GLY27      -0.1210
     29  CA        13.3780   27.9710    2.4900 C.3    27  GLY27       0.1956
     30  C         12.3450   27.9860    3.5920 C.2    27  GLY27       0.2612
     31  O         11.3250   27.2630    3.5200 O.2    27  GLY27      -0.2717
     32  N         12.6540   28.7150    4.6640 N.am   28  ALA28      -0.1965
     33  CA        11.7590   28.8760    5.8140 C.3    28  ALA28       0.1728
     34  C         11.0630   30.2160    5.8190 C.2    28  ALA28       0.2616
     35  O         11.7150   31.2840    5.7810 O.2    28  ALA28      -0.2715
     36  CB        12.5410   28.6860    7.1090 C.3    28  ALA28       0.0334
     37  N          9.7250   30.1850    5.7850 N.am   29  ASP29      -0.1957
     38  CA         8.9750   31.4350    5.8880 C.3    29  ASP29       0.1840
     39  C          9.2180   32.1290    7.2340 C.2    29  ASP29       0.2622
     40  O          9.2540   33.3700    7.3280 O.2    29  ASP29      -0.2715
     41  CB         7.4620   31.1570    5.7860 C.3    29  ASP29       0.1450
     42  CG         7.0350   30.6970    4.4060 C.2    29  ASP29       0.3671
     43  OD1        5.9380   30.0930    4.3380 O.co2  29  ASP29      -0.2456
     44  OD2        7.7570   30.8020    3.3920 O.co2  29  ASP29      -0.2456
     45  N          9.3400   31.3110    8.2920 N.am   30  ASP30      -0.1971
     46  CA         9.3560   31.7680    9.6690 C.3    30  ASP30       0.1709
     47  C         10.6380   31.3540   10.3850 C.2    30  ASP30       0.2293
     48  O         11.3750   30.5050    9.9380 O.2    30  ASP30      -0.2864
     49  CB         8.2000   31.1180   10.4060 C.3    30  ASP30       0.1436
     50  CG         6.8860   31.3540    9.7140 C.2    30  ASP30       0.3671
     51  OD1        6.5580   32.4790    9.3610 O.co2  30  ASP30      -0.2456
     52  OD2        6.1120   30.4380    9.4850 O.co2  30  ASP30      -0.2456
     53  N         12.0870   29.6350   13.7110 N.3    32  VAL32      -0.1245
     54  CA        11.6450   28.6520   14.6620 C.3    32  VAL32       0.1561
     55  C         12.7940   28.1990   15.5100 C.2    32  VAL32       0.2260
     56  O         13.8020   27.7520   14.9570 O.2    32  VAL32      -0.2867
     57  CB        11.1060   27.3730   13.9860 C.3    32  VAL32       0.0252
     58  CG1       10.2600   26.6140   15.0470 C.3    32  VAL32       0.0019
     59  CG2       10.2780   27.7230   12.8000 C.3    32  VAL32       0.0019
     60  N          3.0950   24.4120   12.0300 N.3    47  ILE47      -0.1231
     61  CA         4.0090   24.6740   10.9120 C.3    47  ILE47       0.1692
     62  C          4.4330   23.3710   10.3370 C.2    47  ILE47       0.2593
     63  O          4.5390   22.3780   11.0570 O.2    47  ILE47      -0.2718
     64  CB         5.2090   25.4960   11.3280 C.3    47  ILE47       0.0266
     65  CG1        6.0100   24.7460   12.3860 C.3    47  ILE47       0.0019
     66  CG2        4.7460   26.9120   11.7910 C.3    47  ILE47       0.0020
     67  CD1        7.3830   25.3970   12.7310 C.3    47  ILE47       0.0001
     68  N          4.6080   23.3680    9.0240 N.am   48  GLY48      -0.1942
     69  CA         4.8490   22.1570    8.2590 C.3    48  GLY48       0.2014
     70  C          6.0830   22.2850    7.3660 C.2    48  GLY48       0.2639
     71  O          6.5040   23.3600    6.9940 O.2    48  GLY48      -0.2714
     72  N          6.6700   21.1570    7.0530 N.am   49  GLY49      -0.1939
     73  CA         7.8330   21.1120    6.2180 C.3    49  GLY49       0.2014
     74  C          7.9560   19.7100    5.6870 C.2    49  GLY49       0.2638
     75  O          6.9770   19.0050    5.6120 O.2    49  GLY49      -0.2714
     76  N          9.1580   19.2950    5.3130 N.am   50  ILE50      -0.1977
     77  CA         9.3660   17.8830    5.0210 C.3    50  ILE50       0.1596
     78  C          9.0050   17.0550    6.2650 C.2    50  ILE50       0.2287
     79  O          9.4630   17.3560    7.3670 O.2    50  ILE50      -0.2864
     80  CB        10.8420   17.6230    4.7220 C.3    50  ILE50       0.0276
     81  CG1       11.2940   18.4400    3.5260 C.3    50  ILE50       0.0022
     82  CG2       11.0790   16.0940    4.5050 C.3    50  ILE50       0.0022
     83  CD1       10.7510   17.9750    2.3170 C.3    50  ILE50       0.0001
     84  N         13.8000   20.3380   14.9310 N.3    81  PRO81      -0.2102
     85  CA        15.0770   19.6110   14.9540 C.3    81  PRO81       0.1504
     86  C         16.3600   20.5090   15.0470 C.2    81  PRO81       0.2575
     87  O         17.3620   20.1540   15.6160 O.2    81  PRO81      -0.2718
     88  CB        15.0070   18.7440   13.6720 C.3    81  PRO81       0.0282
     89  CG        13.5340   18.7030   13.3100 C.3    81  PRO81       0.0208
     90  CD        12.9830   20.0090   13.7410 C.3    81  PRO81       0.0893
     91  N         16.2880   21.7210   14.5330 N.am   82  VAL82      -0.1980
     92  CA        17.4170   22.6530   14.5710 C.3    82  VAL82       0.1595
     93  C         16.8380   24.0950   14.6190 C.2    82  VAL82       0.2287
     94  O         15.7310   24.3500   14.1020 O.2    82  VAL82      -0.2864
     95  CB        18.3240   22.4870   13.3130 C.3    82  VAL82       0.0276
     96  CG1       17.6380   22.9050   12.0380 C.3    82  VAL82       0.0022
     97  CG2       19.6530   23.2760   13.4250 C.3    82  VAL82       0.0022
     98  N         16.1490   27.6340   13.3100 N.3    84  ILE84      -0.1245
     99  CA        16.0220   28.1550   11.9600 C.3    84  ILE84       0.1561
    100  C         15.7210   29.6510   11.9650 C.2    84  ILE84       0.2260
    101  O         14.7690   30.1010   12.6380 O.2    84  ILE84      -0.2867
    102  CB        14.8640   27.3940   11.2640 C.3    84  ILE84       0.0252
    103  CG1       15.2520   25.9670   10.9710 C.3    84  ILE84       0.0019
    104  CG2       14.4060   28.0860    9.9550 C.3    84  ILE84       0.0019
    105  CD1       14.0210   25.0330   10.8310 C.3    84  ILE84       0.0001
@<TRIPOS>BOND
     1    83    81    1
     2    29    28    1
     3    29    30    1
     4    44    42   ar
     5    31    30    2
     6    81    80    1
     7    30    32   am
     8    43    42   ar
     9    42    41    1
    10    82    80    1
    11    32    33    1
    12    80    77    1
    13    27    25   ar
    14    77    76    1
    15    77    78    1
    16    22    23    2
    17    22    21    1
    18    76    74   am
    19    75    74    2
    20    74    73    1
    21    35    34    2
    22    37    34   am
    23    37    38    1
    24    41    38    1
    25    33    34    1
    26    33    36    1
    27    38    39    1
    28    21    20    1
    29    21    24    1
    30     1     2    1
    31    25    26   ar
    32    25    24    1
    33    73    72    1
    34    78    79    2
    35     2     3    1
    36     2     5    1
    37     3     4    1
    38    71    70    2
    39    72    70   am
    40     6     5    1
    41     6     7    1
    42    39    40    2
    43    39    45   am
    44    70    69    1
    45     8     7    1
    46     8     9    2
    47    18    17    1
    48    10     9    1
    49    69    68    1
    50    45    46    1
    51    19    17    1
    52    17    16    1
    53     9    11    1
    54    68    62   am
    55    51    50   ar
    56    52    50   ar
    57    14    15    2
    58    14    13    1
    59    46    47    1
    60    46    49    1
    61    50    49    1
    62    48    47    2
    63   104   102    1
    64    16    13    1
    65    62    61    1
    66    62    63    2
    67    13    12    1
    68   105   103    1
    69    61    64    1
    70    61    60    1
    71   103   102    1
    72   102    99    1
    73    64    66    1
    74    64    65    1
    75    99   100    1
    76    99    98    1
    77   100   101    2
    78    96    95    1
    79    65    67    1
    80    59    57    1
    81    89    88    1
    82    89    90    1
    83    95    97    1
    84    95    92    1
    85    88    85    1
    86    53    54    1
    87    90    84    1
    88    57    54    1
    89    57    58    1
    90    94    93    2
    91    91    92    1
    92    91    86   am
    93    92    93    1
    94    54    55    1
    95    84    85    1
    96    85    86    1
    97    56    55    2
    98    86    87    2
