@<TRIPOS>MOLECULE
tmp/1iziA00.pdb
 111 104 0 0 0
SMALL
GASTEIGER

@<TRIPOS>ATOM
      1  N         -5.7250   27.6620   -6.2050 N.3     8  ARG8       -0.1245
      2  CA        -5.9200   27.0190   -4.8890 C.3     8  ARG8        0.1563
      3  C         -6.1280   28.0800   -3.8590 C.2     8  ARG8        0.2260
      4  O         -5.4380   29.1090   -3.9180 O.2     8  ARG8       -0.2867
      5  CB        -4.7360   26.2180   -4.4720 C.3     8  ARG8        0.0307
      6  CG        -4.7190   24.9270   -5.1770 C.3     8  ARG8        0.0489
      7  CD        -3.6460   24.0290   -4.6960 C.3     8  ARG8        0.2205
      8  NE        -3.4370   22.9730   -5.6640 N.pl3   8  ARG8       -0.0865
      9  CZ        -2.8410   21.8430   -5.3970 C.cat   8  ARG8        0.5346
     10  NH1       -2.6830   20.9600   -6.3900 N.pl3   8  ARG8        0.1354
     11  NH2       -2.4070   21.6070   -4.1370 N.pl3   8  ARG8        0.1354
     12  N         -4.2710   25.3600    2.6940 N.3    23  LEU23      -0.1245
     13  CA        -5.4020   25.3600    1.7860 C.3    23  LEU23       0.1561
     14  C         -6.7240   25.3750    2.5610 C.2    23  LEU23       0.2260
     15  O         -6.9310   24.5650    3.4870 O.2    23  LEU23      -0.2867
     16  CB        -5.2640   24.0630    0.9900 C.3    23  LEU23       0.0270
     17  CG        -6.0520   23.7250   -0.2540 C.3    23  LEU23       0.0019
     18  CD1       -5.7430   24.7020   -1.2940 C.3    23  LEU23       0.0001
     19  CD2       -5.7250   22.3500   -0.8340 C.3    23  LEU23       0.0001
     20  N         -9.9830   24.1740    2.8150 N.3    25  ASP25      -0.1239
     21  CA       -10.4580   22.9580    2.2510 C.3    25  ASP25       0.1674
     22  C        -11.8440   22.4900    2.7910 C.2    25  ASP25       0.2266
     23  O        -11.9370   21.8040    3.7980 O.2    25  ASP25      -0.2867
     24  CB        -9.4090   21.9270    2.4870 C.3    25  ASP25       0.1410
     25  CG        -9.7460   20.6400    1.8080 C.2    25  ASP25       0.3668
     26  OD1       -8.9580   19.7000    1.9620 O.co2  25  ASP25      -0.2456
     27  OD2      -10.7540   20.5030    1.0840 O.co2  25  ASP25      -0.2456
     28  N        -13.6950   20.2870    1.8370 N.3    27  GLY27      -0.1210
     29  CA       -13.7730   18.8480    1.8030 C.3    27  GLY27       0.1956
     30  C        -13.1460   18.0640    2.9300 C.2    27  GLY27       0.2612
     31  O        -13.1370   16.8440    2.9000 O.2    27  GLY27      -0.2717
     32  N        -12.5050   18.7860    3.8480 N.am   28  ALA28      -0.1965
     33  CA       -11.8050   18.2380    4.9780 C.3    28  ALA28       0.1728
     34  C        -12.5830   18.5160    6.2310 C.2    28  ALA28       0.2616
     35  O        -12.8740   19.6770    6.5930 O.2    28  ALA28      -0.2715
     36  CB       -10.3710   18.8660    5.0920 C.3    28  ALA28       0.0334
     37  N        -12.9980   17.4570    6.9060 N.am   29  ASP29      -0.1957
     38  CA       -13.7020   17.6650    8.1800 C.3    29  ASP29       0.1840
     39  C        -12.7280   18.2780    9.1710 C.2    29  ASP29       0.2622
     40  O        -13.1360   19.0400   10.0180 O.2    29  ASP29      -0.2715
     41  CB       -14.1640   16.3040    8.7560 C.3    29  ASP29       0.1450
     42  CG       -15.1350   15.5760    7.8250 C.2    29  ASP29       0.3671
     43  OD1      -15.0660   14.3710    7.8360 O.co2  29  ASP29      -0.2456
     44  OD2      -15.9680   16.1420    7.0490 O.co2  29  ASP29      -0.2456
     45  N        -11.4690   17.8490    9.0620 N.am   30  ASP30      -0.1971
     46  CA       -10.3470   18.2060    9.9460 C.3    30  ASP30       0.1709
     47  C         -9.2120   19.0560    9.3060 C.2    30  ASP30       0.2293
     48  O         -9.1150   19.2340    8.0830 O.2    30  ASP30      -0.2864
     49  CB        -9.7000   16.9120   10.4780 C.3    30  ASP30       0.1436
     50  CG       -10.7200   15.9820   11.1550 C.2    30  ASP30       0.3671
     51  OD1      -11.4900   16.4430   12.0060 O.co2  30  ASP30      -0.2456
     52  OD2      -10.8470   14.7940   10.8520 O.co2  30  ASP30      -0.2456
     53  N         -5.3040   19.3260    8.9400 N.3    32  VAL32      -0.1245
     54  CA        -4.1640   18.4750    8.9220 C.3    32  VAL32       0.1561
     55  C         -2.9320   19.2250    8.3770 C.2    32  VAL32       0.2260
     56  O         -2.9440   19.7470    7.2770 O.2    32  VAL32      -0.2867
     57  CB        -4.3340   17.2380    8.0050 C.3    32  VAL32       0.0252
     58  CG1       -3.2590   16.1880    8.3650 C.3    32  VAL32       0.0019
     59  CG2       -5.7320   16.6880    8.1060 C.3    32  VAL32       0.0019
     60  N         -6.5470    8.9760    9.7090 N.3    47  ILE47      -0.1231
     61  CA        -7.4830    9.6890    8.8410 C.3    47  ILE47       0.1692
     62  C         -7.2900    9.2370    7.4110 C.2    47  ILE47       0.2593
     63  O         -6.1900    8.8310    6.9820 O.2    47  ILE47      -0.2718
     64  CB        -7.2800   11.2190    8.9040 C.3    47  ILE47       0.0266
     65  CG1       -5.7960   11.5600    8.7840 C.3    47  ILE47       0.0019
     66  CG2       -7.8520   11.7510   10.1500 C.3    47  ILE47       0.0020
     67  CD1       -5.5300   12.4460    7.6820 C.3    47  ILE47       0.0001
     68  N         -8.3780    9.3250    6.6750 N.am   48  GLY48      -0.1942
     69  CA        -8.3840    8.9500    5.2800 C.3    48  GLY48       0.2014
     70  C         -8.7980   10.0190    4.2900 C.2    48  GLY48       0.2639
     71  O         -9.3970   11.0480    4.5940 O.2    48  GLY48      -0.2714
     72  N         -8.4300    9.7630    3.0510 N.am   49  GLY49      -0.1939
     73  CA        -8.9240   10.5480    1.9470 C.3    49  GLY49       0.2014
     74  C         -8.7980    9.7090    0.7250 C.2    49  GLY49       0.2638
     75  O         -8.8530    8.4800    0.7500 O.2    49  GLY49      -0.2714
     76  N         -8.6160   10.3850   -0.3770 N.am   50  ILE50      -0.1977
     77  CA        -8.3980    9.6990   -1.5930 C.3    50  ILE50       0.1596
     78  C         -7.0220    9.1020   -1.3610 C.2    50  ILE50       0.2287
     79  O         -6.0980    9.7500   -0.7980 O.2    50  ILE50      -0.2864
     80  CB        -8.4330   10.7140   -2.7630 C.3    50  ILE50       0.0276
     81  CG1       -9.5290   10.3630   -3.7800 C.3    50  ILE50       0.0022
     82  CG2       -7.0970   10.8380   -3.4720 C.3    50  ILE50       0.0022
     83  CD1      -10.6620   11.4180   -3.7710 C.3    50  ILE50       0.0001
     84  N          0.6530   14.4770    5.7750 N.3    80  THR80      -0.1204
     85  CA        -0.1540   14.9150    4.6520 C.3    80  THR80       0.1979
     86  C          0.7240   15.6110    3.6190 C.2    80  THR80       0.2460
     87  O          1.6670   16.3150    3.9630 O.2    80  THR80      -0.2732
     88  CB        -1.2660   15.9040    5.1090 C.3    80  THR80       0.1783
     89  OG1       -1.8390   16.5400    3.9520 O.3    80  THR80      -0.2211
     90  CG2       -0.6680   17.0800    5.8860 C.3    80  THR80       0.0376
     91  N          0.3770   15.4690    2.3540 N.am   81  PRO81      -0.2717
     92  CA         1.1190   16.1090    1.2530 C.3    81  PRO81       0.1535
     93  C          0.9370   17.6180    1.2310 C.2    81  PRO81       0.2599
     94  O          1.6840   18.3270    0.5540 O.2    81  PRO81      -0.2715
     95  CB         0.4360   15.5610   -0.0180 C.3    81  PRO81       0.0310
     96  CG        -0.3810   14.4300    0.4570 C.3    81  PRO81       0.0237
     97  CD        -0.7550   14.6670    1.8770 C.3    81  PRO81       0.0939
     98  N         -0.1120   18.1020    1.9040 N.am   82  THR82      -0.1951
     99  CA        -0.3510   19.5420    1.9200 C.3    82  THR82       0.1897
    100  C         -1.0790   19.9660    3.1970 C.2    82  THR82       0.2313
    101  O         -1.8880   19.2130    3.7330 O.2    82  THR82      -0.2863
    102  CB        -1.1660   19.8870    0.6740 C.3    82  THR82       0.1794
    103  OG1       -1.0760   21.2780    0.3930 O.3    82  THR82      -0.2208
    104  CG2       -2.5710   19.7900    1.0220 C.3    82  THR82       0.0378
    105  N         -3.8500   21.5230    5.3210 N.3    84  VAL84      -0.1245
    106  CA        -5.2650   21.8460    4.9820 C.3    84  VAL84       0.1561
    107  C         -6.0110   22.3080    6.2150 C.2    84  VAL84       0.2260
    108  O         -5.8190   21.7730    7.3060 O.2    84  VAL84      -0.2867
    109  CB        -6.0260   20.6640    4.3000 C.3    84  VAL84       0.0252
    110  CG1       -5.3480   20.2680    3.0270 C.3    84  VAL84       0.0019
    111  CG2       -6.0740   19.4360    5.1520 C.3    84  VAL84       0.0019
@<TRIPOS>BOND
     1    10     9    1
     2     1     2    1
     3     8     9    2
     4     8     7    1
     5     9    11    1
     6     6     7    1
     7     6     5    1
     8     2     5    1
     9     2     3    1
    10     4     3    2
    11    81    83    1
    12    81    80    1
    13    82    80    1
    14    80    77    1
    15    77    78    1
    16    77    76    1
    17    78    79    2
    18    18    17    1
    19    19    17    1
    20    76    74   am
    21    17    16    1
    22    95    96    1
    23    95    92    1
    24   103   102    1
    25    96    97    1
    26    94    93    2
    27   102   104    1
    28   102    99    1
    29    74    75    2
    30    74    73    1
    31    16    13    1
    32    27    25   ar
    33    93    92    1
    34    93    98   am
    35    92    91    1
    36    13    14    1
    37    13    12    1
    38    29    28    1
    39    29    30    1
    40    25    26   ar
    41    25    24    1
    42    97    91    1
    43    98    99    1
    44    99   100    1
    45    73    72    1
    46    21    24    1
    47    21    22    1
    48    21    20    1
    49    91    86   am
    50    14    15    2
    51    22    23    2
    52    31    30    2
    53    30    32   am
    54   110   109    1
    55    72    70   am
    56   100   101    2
    57    86    87    2
    58    86    85    1
    59    32    33    1
    60    89    88    1
    61    70    71    2
    62    70    69    1
    63   109   106    1
    64   109   111    1
    65    85    88    1
    66    85    84    1
    67    33    36    1
    68    33    34    1
    69   106   105    1
    70   106   107    1
    71    88    90    1
    72    69    68    1
    73   107   108    2
    74    34    35    2
    75    34    37   am
    76    68    62   am
    77    37    38    1
    78    63    62    2
    79    44    42   ar
    80    56    55    2
    81    62    61    1
    82    67    65    1
    83    42    43   ar
    84    42    41    1
    85    57    59    1
    86    57    58    1
    87    57    54    1
    88    48    47    2
    89    38    41    1
    90    38    39    1
    91    55    54    1
    92    65    64    1
    93    61    64    1
    94    61    60    1
    95    64    66    1
    96    54    53    1
    97    45    39   am
    98    45    46    1
    99    39    40    2
   100    47    46    1
   101    46    49    1
   102    49    50    1
   103    52    50   ar
   104    50    51   ar
