@<TRIPOS>MOLECULE
tmp/1izlB01.pdb
 101 96 0 0 0
SMALL
GASTEIGER

@<TRIPOS>ATOM
      1  N          1.2800   46.6450    4.8500 N.3    16  PRO16      -0.2116
      2  CA        -0.0390   46.2830    5.3780 C.3    16  PRO16       0.1372
      3  C         -0.3440   44.7880    5.2630 C.2    16  PRO16       0.2244
      4  O         -1.2410   44.2780    5.9390 O.2    16  PRO16      -0.2868
      5  CB        -0.9840   47.1130    4.5120 C.3    16  PRO16       0.0268
      6  CG        -0.2780   47.1440    3.1960 C.3    16  PRO16       0.0207
      7  CD         1.1480   47.4360    3.6120 C.3    16  PRO16       0.0892
      8  N          1.6940   42.9340    8.0830 N.3    19  LEU19      -0.1231
      9  CA         1.1560   43.3670    9.3690 C.3    19  LEU19       0.1693
     10  C         -0.0710   42.5440    9.7490 C.2    19  LEU19       0.2591
     11  O         -0.3360   42.3180   10.9330 O.2    19  LEU19      -0.2718
     12  CB         0.7820   44.8510    9.3180 C.3    19  LEU19       0.0284
     13  CG         0.2890   45.5080   10.5980 C.3    19  LEU19       0.0019
     14  CD1        1.4260   45.6830   11.5970 C.3    19  LEU19       0.0001
     15  CD2       -0.3570   46.8580   10.2940 C.3    19  LEU19       0.0001
     16  N         -0.8530   42.1620    8.7420 N.am   20  ILE20      -0.1980
     17  CA        -2.0550   41.3610    8.9480 C.3    20  ILE20       0.1595
     18  C         -1.7070   39.8810    9.0770 C.2    20  ILE20       0.2287
     19  O         -2.4560   39.1100    9.6800 O.2    20  ILE20      -0.2864
     20  CB        -3.0590   41.5420    7.7920 C.3    20  ILE20       0.0276
     21  CG1       -3.5900   43.0200    7.8400 C.3    20  ILE20       0.0022
     22  CG2       -4.2150   40.5660    7.9410 C.3    20  ILE20       0.0022
     23  CD1       -4.7910   43.2770    7.0080 C.3    20  ILE20       0.0001
     24  N         -0.1920   39.2440   12.5120 N.3    23  HIS23      -0.1226
     25  CA        -1.2350   39.4420   13.5080 C.3    23  HIS23       0.1752
     26  C         -2.1410   38.2150   13.5800 C.2    23  HIS23       0.2595
     27  O         -2.8590   38.0190   14.5640 O.2    23  HIS23      -0.2718
     28  CB        -2.0660   40.6800   13.1680 C.3    23  HIS23       0.0759
     29  CG        -3.0610   41.0820   14.2410 C.ar   23  HIS23       0.0818
     30  ND1       -2.9150   42.0520   15.1350 N.ar   23  HIS23      -0.2268
     31  CD2       -4.3290   40.5850   14.3800 C.ar   23  HIS23       0.1154
     32  CE1       -4.0370   42.1860   15.7980 C.ar   23  HIS23       0.1986
     33  NE2       -4.8710   41.3030   15.3320 N.ar   23  HIS23      -0.2212
     34  N         -2.1300   37.4180   12.5160 N.am   24  LEU24      -0.1980
     35  CA        -2.9370   36.2070   12.4340 C.3    24  LEU24       0.1596
     36  C         -2.1500   34.9840   12.8960 C.2    24  LEU24       0.2287
     37  O         -2.6680   34.1530   13.6420 O.2    24  LEU24      -0.2864
     38  CB        -3.4310   35.9940   11.0010 C.3    24  LEU24       0.0297
     39  CG        -4.6450   35.1300   10.7320 C.3    24  LEU24       0.0022
     40  CD1       -5.9070   35.7050   11.3600 C.3    24  LEU24       0.0001
     41  CD2       -4.8320   34.9810    9.2190 C.3    24  LEU24       0.0001
     42  N         -1.7280   35.2110   16.4810 N.3    27  THR27      -0.1218
     43  CA        -3.0080   35.1270   17.1760 C.3    27  THR27       0.1862
     44  C         -3.3880   33.6630   17.3560 C.2    27  THR27       0.2287
     45  O         -4.0630   33.2990   18.3220 O.2    27  THR27      -0.2866
     46  CB        -4.1200   35.8210   16.3750 C.3    27  THR27       0.1770
     47  OG1       -3.7980   37.2070   16.5070 O.3    27  THR27      -0.2211
     48  CG2       -5.5050   35.5980   17.0060 C.3    27  THR27       0.0375
     49  N         -5.6270   48.2500   -1.5320 N.3   117  PHE117     -0.1241
     50  CA        -4.9100   49.3270   -0.8590 C.3   117  PHE117      0.1605
     51  C         -3.6700   49.6950   -1.6630 C.2   117  PHE117      0.2264
     52  O         -2.6880   48.9500   -1.6830 O.2   117  PHE117     -0.2867
     53  CB        -4.5150   48.8950    0.5540 C.3   117  PHE117      0.0534
     54  CG        -5.6790   48.6630    1.5330 C.ar  117  PHE117     -0.0203
     55  CD1       -6.8970   49.2710    1.3120 C.ar  117  PHE117     -0.0042
     56  CD2       -5.4530   47.8760    2.6590 C.ar  117  PHE117     -0.0042
     57  CE1       -7.8910   49.0710    2.2470 C.ar  117  PHE117     -0.0003
     58  CE2       -6.4520   47.6880    3.5830 C.ar  117  PHE117     -0.0003
     59  CZ        -7.6740   48.3000    3.3590 C.ar  117  PHE117     -0.0000
     60  N         -2.0470   52.5180    4.9030 N.3   128  ASP128     -0.1239
     61  CA        -2.6730   52.0910    6.1500 C.3   128  ASP128      0.1674
     62  C         -3.5020   53.2140    6.7750 C.2   128  ASP128      0.2266
     63  O         -2.9840   54.0390    7.5310 O.2   128  ASP128     -0.2867
     64  CB        -1.6030   51.6150    7.1360 C.3   128  ASP128      0.1410
     65  CG        -1.1730   50.1990    6.9770 C.2   128  ASP128      0.3668
     66  OD1       -1.7220   49.4670    6.1820 O.co2 128  ASP128     -0.2456
     67  OD2       -0.2290   49.8190    7.7820 O.co2 128  ASP128     -0.2456
     68  N         -9.6670   52.1950    9.7330 N.3   132  MET132     -0.1245
     69  CA        -9.9300   50.7580    9.7500 C.3   132  MET132      0.1570
     70  C        -10.3260   50.2940   11.1490 C.2   132  MET132      0.2261
     71  O        -10.6620   49.1250   11.3520 O.2   132  MET132     -0.2867
     72  CB        -8.6950   49.9880    9.2750 C.3   132  MET132      0.0387
     73  CG        -8.4240   50.3920    7.8210 C.3   132  MET132      0.0595
     74  SD        -7.2910   49.3050    7.0540 S.3   132  MET132     -0.1393
     75  CE        -7.9430   47.6830    7.1390 C.3   132  MET132      0.0692
     76  N        -14.3630   49.7520   11.4070 N.3   135  ILE135     -0.1231
     77  CA       -14.8650   48.4920   10.8690 C.3   135  ILE135      0.1692
     78  C        -14.5040   47.3400   11.8020 C.2   135  ILE135      0.2592
     79  O        -15.0300   46.2310   11.6730 O.2   135  ILE135     -0.2718
     80  CB       -14.2800   48.2080    9.4720 C.3   135  ILE135      0.0266
     81  CG1      -14.8950   49.2070    8.4700 C.3   135  ILE135      0.0019
     82  CG2      -14.5080   46.7740    9.0610 C.3   135  ILE135      0.0020
     83  CD1      -14.2180   49.2200    7.1280 C.3   135  ILE135      0.0001
     84  N        -13.5650   47.5990   12.7080 N.am  136  HIS136     -0.1976
     85  CA       -13.1170   46.6080   13.6770 C.3   136  HIS136      0.1656
     86  C        -13.8970   46.7380   14.9840 C.2   136  HIS136      0.2291
     87  O        -13.9420   45.8000   15.7830 O.2   136  HIS136     -0.2864
     88  CB       -11.6210   46.7720   13.9470 C.3   136  HIS136      0.0771
     89  CG       -10.9850   45.6250   14.7090 C.ar  136  HIS136      0.0820
     90  ND1      -11.0150   44.3500   14.2580 N.ar  136  HIS136     -0.2267
     91  CD2      -10.3420   45.5550   15.9060 C.ar  136  HIS136      0.1154
     92  CE1      -10.3600   43.5820   15.1220 C.ar  136  HIS136      0.1986
     93  NE2       -9.9220   44.2650   16.1150 N.ar  136  HIS136     -0.2212
     94  N        -17.5500   45.3970   14.3940 N.3   139  LEU139     -0.1245
     95  CA       -17.4730   43.9480   14.2570 C.3   139  LEU139      0.1561
     96  C        -17.3860   43.3220   15.6460 C.2   139  LEU139      0.2260
     97  O        -17.8100   42.1820   15.8540 O.2   139  LEU139     -0.2867
     98  CB       -16.2450   43.5570   13.4310 C.3   139  LEU139      0.0270
     99  CG       -16.0450   42.0850   13.1000 C.3   139  LEU139      0.0019
    100  CD1      -17.0650   41.6130   12.0710 C.3   139  LEU139      0.0001
    101  CD2      -14.6280   41.8390   12.5890 C.3   139  LEU139      0.0001
@<TRIPOS>BOND
     1    52    51    2
     2    51    50    1
     3    49    50    1
     4    50    53    1
     5    53    54    1
     6    55    54   ar
     7    55    57   ar
     8    54    56   ar
     9    57    59   ar
    10    56    58   ar
    11     6     7    1
    12     6     5    1
    13    59    58   ar
    14     7     1    1
    15     5     2    1
    16     1     2    1
    17    60    61    1
    18     3     2    1
    19     3     4    2
    20    61    62    1
    21    61    64    1
    22    66    65   ar
    23    62    63    2
    24    65    64    1
    25    65    67   ar
    26    23    21    1
    27    74    75    1
    28    74    73    1
    29    83    81    1
    30    20    21    1
    31    20    22    1
    32    20    17    1
    33    73    72    1
    34     8     9    1
    35    81    80    1
    36    16    17    1
    37    16    10   am
    38    17    18    1
    39    82    80    1
    40    18    19    2
    41    41    39    1
    42    72    69    1
    43    12     9    1
    44    12    13    1
    45     9    10    1
    46    80    77    1
    47    68    69    1
    48    10    11    2
    49    69    70    1
    50    15    13    1
    51    13    14    1
    52    39    38    1
    53    39    40    1
    54    77    76    1
    55    77    78    1
    56    38    35    1
    57    70    71    2
    58    79    78    2
    59    78    84   am
    60   100    99    1
    61    35    34    1
    62    35    36    1
    63    24    25    1
    64    34    26   am
    65   101    99    1
    66    84    85    1
    67    36    37    2
    68    99    98    1
    69    28    25    1
    70    28    29    1
    71    98    95    1
    72    25    26    1
    73    26    27    2
    74    85    88    1
    75    85    86    1
    76    88    89    1
    77    29    31   ar
    78    29    30   ar
    79    95    94    1
    80    95    96    1
    81    90    89   ar
    82    90    92   ar
    83    31    33   ar
    84    89    91   ar
    85    86    87    2
    86    92    93   ar
    87    30    32   ar
    88    33    32   ar
    89    96    97    2
    90    91    93   ar
    91    46    47    1
    92    46    48    1
    93    46    43    1
    94    42    43    1
    95    43    44    1
    96    44    45    2
