@<TRIPOS>MOLECULE
tmp/1izlO04.pdb
 107 106 0 0 0
SMALL
GASTEIGER

@<TRIPOS>ATOM
      1  N         -9.3090   10.9390   -4.4400 N.3     5  ILE5       -0.1245
      2  CA        -9.3890    9.9180   -3.3990 C.3     5  ILE5        0.1561
      3  C         -8.1650    9.9680   -2.4910 C.2     5  ILE5        0.2260
      4  O         -8.2670    9.7170   -1.2910 O.2     5  ILE5       -0.2867
      5  CB        -9.4900    8.5040   -4.0080 C.3     5  ILE5        0.0252
      6  CG1       -9.6680    7.5150   -2.8020 C.3     5  ILE5        0.0019
      7  CG2       -8.3520    8.1600   -5.0120 C.3     5  ILE5        0.0019
      8  CD1      -10.2850    6.1890   -3.2960 C.3     5  ILE5        0.0001
      9  N         -8.4190   12.2790    0.3980 N.3     8  PRO8       -0.2102
     10  CA        -9.3870   11.8280    1.4040 C.3     8  PRO8        0.1504
     11  C         -8.9850   10.5130    2.0720 C.2     8  PRO8        0.2576
     12  O         -9.7040   10.0010    2.9330 O.2     8  PRO8       -0.2718
     13  CB       -10.6830   11.6510    0.6390 C.3     8  PRO8        0.0282
     14  CG       -10.5310   12.0350   -0.7420 C.3     8  PRO8        0.0208
     15  CD        -9.0550   12.2300   -0.9870 C.3     8  PRO8        0.0893
     16  N         -7.8430    9.9670    1.6620 N.am    9  THR9       -0.1953
     17  CA        -7.3410    8.7150    2.2170 C.3     9  THR9        0.1897
     18  C         -6.0770    8.9430    3.0370 C.2     9  THR9        0.2313
     19  O         -5.9770    8.4870    4.1750 O.2     9  THR9       -0.2863
     20  CB        -7.0350    7.6930    1.1080 C.3     9  THR9        0.1794
     21  OG1       -6.1610    8.2760    0.1500 O.3     9  THR9       -0.2208
     22  CG2       -8.3040    7.2190    0.4240 C.3     9  THR9        0.0378
     23  N         -6.8990   11.1060    6.1150 N.3    12  ALA12      -0.1245
     24  CA        -7.6490   10.4150    7.1560 C.3    12  ALA12       0.1562
     25  C         -6.8080    9.3320    7.8280 C.2    12  ALA12       0.2260
     26  O         -7.1130    8.9020    8.9420 O.2    12  ALA12      -0.2867
     27  CB        -8.9200    9.8120    6.5720 C.3    12  ALA12       0.0290
     28  N        -19.2610   -5.0540   10.4730 N.3    57  HIS57      -0.1241
     29  CA       -18.0350   -4.6570    9.7360 C.3    57  HIS57       0.1621
     30  C        -17.1800   -3.6760   10.5370 C.2    57  HIS57       0.2264
     31  O        -15.9540   -3.7580   10.5220 O.2    57  HIS57      -0.2867
     32  CB       -18.4100   -4.0440    8.3840 C.3    57  HIS57       0.0745
     33  CG       -17.2270   -3.6190    7.5620 C.ar   57  HIS57       0.0817
     34  ND1      -17.0750   -2.3350    7.0830 N.ar   57  HIS57      -0.2268
     35  CD2      -16.1370   -4.3050    7.1400 C.ar   57  HIS57       0.1154
     36  CE1      -15.9460   -2.2480    6.4020 C.ar   57  HIS57       0.1986
     37  NE2      -15.3580   -3.4300    6.4200 N.ar   57  HIS57      -0.2212
     38  N        -16.5910    0.2170   10.7240 N.3    59  TYR59      -0.1228
     39  CA       -15.7120    1.1110    9.9750 C.3    59  TYR59       0.1721
     40  C        -16.1910    2.5550   10.1120 C.2    59  TYR59       0.2437
     41  O        -15.8830    3.2270   11.0960 O.2    59  TYR59      -0.2733
     42  CB       -15.6540    0.7020    8.5000 C.3    59  TYR59       0.0547
     43  CG       -15.0060    1.6570    7.5200 C.ar   59  TYR59      -0.0200
     44  CD1      -13.8120    2.2810    7.7630 C.ar   59  TYR59      -0.0009
     45  CD2      -15.6350    1.9260    6.3220 C.ar   59  TYR59      -0.0009
     46  CE1      -13.2240    3.1510    6.8360 C.ar   59  TYR59       0.0417
     47  CE2      -15.0700    2.7520    5.3950 C.ar   59  TYR59       0.0417
     48  CZ       -13.8570    3.3760    5.6380 C.ar   59  TYR59       0.1957
     49  OH       -13.3710    4.2440    4.6980 O.3    59  TYR59      -0.2866
     50  N        -16.9470    3.0540    9.1200 N.am   60  PRO60      -0.2729
     51  CA       -17.4520    4.4310    9.1690 C.3    60  PRO60       0.1401
     52  C        -18.5810    4.5820   10.1900 C.2    60  PRO60       0.2269
     53  O        -18.8500    5.6830   10.6750 O.2    60  PRO60      -0.2865
     54  CB       -17.9550    4.7070    7.7670 C.3    60  PRO60       0.0296
     55  CG       -18.6340    3.3860    7.4750 C.3    60  PRO60       0.0237
     56  CD       -17.6180    2.3610    7.9720 C.3    60  PRO60       0.0939
     57  N        -19.4970    3.1950   13.6700 N.3    62  TRP62      -0.1241
     58  CA       -19.1010    2.4780   14.8790 C.3    62  TRP62       0.1605
     59  C        -20.2810    1.7760   15.5510 C.2    62  TRP62       0.2264
     60  O        -20.2090    0.5850   15.8620 O.2    62  TRP62      -0.2867
     61  CB       -18.4420    3.4310   15.8810 C.3    62  TRP62       0.0550
     62  CG       -17.2790    4.2300   15.3490 C.ar   62  TRP62       0.0003
     63  CD1      -17.1780    5.5930   15.3150 C.ar   62  TRP62       0.0946
     64  CD2      -16.0380    3.7260   14.8270 C.ar   62  TRP62       0.0152
     65  NE1      -15.9530    5.9690   14.8170 N.ar   62  TRP62      -0.2442
     66  CE2      -15.2320    4.8430   14.5120 C.ar   62  TRP62       0.0810
     67  CE3      -15.5250    2.4400   14.6060 C.ar   62  TRP62       0.0012
     68  CZ2      -13.9450    4.7170   13.9770 C.ar   62  TRP62       0.0191
     69  CZ3      -14.2400    2.3130   14.0730 C.ar   62  TRP62       0.0001
     70  CH2      -13.4660    3.4490   13.7710 C.ar   62  TRP62       0.0015
     71  N        -10.5290    1.4660    9.9280 N.3    79  LEU79      -0.1245
     72  CA       -10.7620    2.5750    9.0120 C.3    79  LEU79       0.1561
     73  C         -9.4660    2.9660    8.3020 C.2    79  LEU79       0.2260
     74  O         -9.4890    3.4080    7.1530 O.2    79  LEU79      -0.2867
     75  CB       -11.3200    3.7810    9.7730 C.3    79  LEU79       0.0270
     76  CG       -10.3530    4.4910   10.7170 C.3    79  LEU79       0.0019
     77  CD1       -9.6400    5.6880    9.9860 C.3    79  LEU79       0.0001
     78  CD2      -11.1400    5.0490   11.8800 C.3    79  LEU79       0.0001
     79  N         -8.4860    0.5550    5.4320 N.3    82  PHE82      -0.1227
     80  CA        -9.2960    0.8070    4.2470 C.3    82  PHE82       0.1736
     81  C         -8.7080    1.9580    3.4350 C.2    82  PHE82       0.2595
     82  O         -9.0130    2.1150    2.2510 O.2    82  PHE82      -0.2718
     83  CB       -10.7350    1.1380    4.6500 C.3    82  PHE82       0.0547
     84  CG       -11.7310    0.9680    3.5400 C.ar   82  PHE82      -0.0202
     85  CD1      -12.1010   -0.3220    3.1310 C.ar   82  PHE82      -0.0042
     86  CD2      -12.2990    2.0450    2.9210 C.ar   82  PHE82      -0.0042
     87  CE1      -13.0400   -0.5130    2.1430 C.ar   82  PHE82      -0.0003
     88  CE2      -13.2480    1.8690    1.9290 C.ar   82  PHE82      -0.0003
     89  CZ       -13.6160    0.5790    1.5430 C.ar   82  PHE82      -0.0000
     90  N         -7.8890    2.7770    4.0900 N.am   83  HIS83      -0.1975
     91  CA        -7.2490    3.9170    3.4450 C.3    83  HIS83       0.1656
     92  C         -5.9600    3.5250    2.7350 C.2    83  HIS83       0.2291
     93  O         -5.4820    4.2550    1.8680 O.2    83  HIS83      -0.2864
     94  CB        -6.9580    5.0140    4.4700 C.3    83  HIS83       0.0771
     95  CG        -8.1860    5.5680    5.1250 C.ar   83  HIS83       0.0820
     96  ND1       -9.4250    5.5430    4.5250 N.ar   83  HIS83      -0.2267
     97  CD2       -8.3600    6.1600    6.3310 C.ar   83  HIS83       0.1154
     98  CE1      -10.3130    6.0940    5.3350 C.ar   83  HIS83       0.1986
     99  NE2       -9.6940    6.4760    6.4350 N.ar   83  HIS83      -0.2212
    100  N         -6.8130    2.5760   -0.7500 N.3    86  LEU86      -0.1245
    101  CA        -7.2370    3.7560   -1.4940 C.3    86  LEU86       0.1561
    102  C         -6.0760    4.7230   -1.7010 C.2    86  LEU86       0.2260
    103  O         -6.0490    5.4750   -2.6760 O.2    86  LEU86      -0.2867
    104  CB        -8.3720    4.4650   -0.7510 C.3    86  LEU86       0.0270
    105  CG        -9.5950    3.6150   -0.4550 C.3    86  LEU86       0.0019
    106  CD1      -10.6930    4.4890    0.1470 C.3    86  LEU86       0.0001
    107  CD2      -10.1900    2.8420   -1.6380 C.3    86  LEU86       0.0001
@<TRIPOS>BOND
     1     7     5    1
     2     1     2    1
     3     5     2    1
     4     5     6    1
     5     2     3    1
     6     8     6    1
     7   103   102    2
     8     3     4    2
     9   102   101    1
    10   107   105    1
    11   101   104    1
    12   101   100    1
    13    15    14    1
    14    15     9    1
    15   104   105    1
    16    14    13    1
    17   105   106    1
    18    21    20    1
    19     9    10    1
    20    22    20    1
    21    13    10    1
    22    20    17    1
    23    10    11    1
    24    89    88   ar
    25    89    87   ar
    26    16    11   am
    27    16    17    1
    28    93    92    2
    29    88    86   ar
    30    11    12    2
    31    87    85   ar
    32    17    18    1
    33    82    81    2
    34    92    91    1
    35    86    84   ar
    36    18    19    2
    37    85    84   ar
    38    81    90   am
    39    81    80    1
    40    91    90    1
    41    91    94    1
    42    84    83    1
    43    80    83    1
    44    80    79    1
    45    94    95    1
    46    96    95   ar
    47    96    98   ar
    48    49    48    1
    49    95    97   ar
    50    98    99   ar
    51    47    48   ar
    52    47    45   ar
    53    48    46   ar
    54    23    24    1
    55    45    43   ar
    56    97    99   ar
    57    36    37   ar
    58    36    34   ar
    59    37    35   ar
    60    27    24    1
    61    46    44   ar
    62    34    33   ar
    63    35    33   ar
    64    74    73    2
    65    24    25    1
    66    55    54    1
    67    55    56    1
    68    43    44   ar
    69    43    42    1
    70    33    32    1
    71    54    51    1
    72    25    26    2
    73    56    50    1
    74    73    72    1
    75    32    29    1
    76    42    39    1
    77    72    75    1
    78    72    71    1
    79    50    51    1
    80    50    40   am
    81    51    52    1
    82    29    28    1
    83    29    30    1
    84    75    76    1
    85    39    40    1
    86    39    38    1
    87    77    76    1
    88    40    41    2
    89    52    53    2
    90    31    30    2
    91    76    78    1
    92    57    58    1
    93    70    68   ar
    94    70    69   ar
    95    68    66   ar
    96    69    67   ar
    97    66    65   ar
    98    66    64   ar
    99    67    64   ar
   100    65    63   ar
   101    64    62   ar
   102    58    59    1
   103    58    61    1
   104    63    62   ar
   105    62    61    1
   106    59    60    2
