@<TRIPOS>MOLECULE
tmp/1izlB15.pdb
 91 91 0 0 0
SMALL
GASTEIGER

@<TRIPOS>ATOM
      1  N         21.9170   42.1180   11.1450 N.3     4  PRO4       -0.2102
      2  CA        21.1650   42.9600   10.2080 C.3     4  PRO4        0.1504
      3  C         20.2360   43.9240   10.9450 C.2     4  PRO4        0.2575
      4  O         19.5250   43.5210   11.8640 O.2     4  PRO4       -0.2718
      5  CB        20.3760   41.9330    9.3960 C.3     4  PRO4        0.0282
      6  CG        20.1390   40.8340   10.3880 C.3     4  PRO4        0.0208
      7  CD        21.4930   40.7110   11.0360 C.3     4  PRO4        0.0893
      8  N         20.2160   45.1780   10.4940 N.am    5  TRP5       -0.1977
      9  CA        19.3890   46.2290   11.0890 C.3     5  TRP5        0.1640
     10  C         19.8840   46.6480   12.4740 C.2     5  TRP5        0.2290
     11  O         20.5540   47.6750   12.6090 O.2     5  TRP5       -0.2864
     12  CB        17.9150   45.8050   11.1500 C.3     5  TRP5        0.0576
     13  CG        17.4150   45.4100    9.7880 C.ar    5  TRP5        0.0006
     14  CD1       17.8780   45.8730    8.5800 C.ar    5  TRP5        0.0946
     15  CD2       16.3680   44.4940    9.4790 C.ar    5  TRP5        0.0152
     16  NE1       17.1900   45.2880    7.5550 N.ar    5  TRP5       -0.2442
     17  CE2       16.2540   44.4290    8.0760 C.ar    5  TRP5        0.0810
     18  CE3       15.5070   43.7110   10.2560 C.ar    5  TRP5        0.0012
     19  CZ2       15.3150   43.6300    7.4330 C.ar    5  TRP5        0.0191
     20  CZ3       14.5860   42.9140    9.6070 C.ar    5  TRP5        0.0001
     21  CH2       14.4840   42.8700    8.2130 C.ar    5  TRP5        0.0015
     22  N         13.3600   43.6260   15.7150 N.3     9  HIS9       -0.1241
     23  CA        12.6470   43.5460   14.4420 C.3     9  HIS9        0.1621
     24  C         12.1220   44.9180   14.0270 C.2     9  HIS9        0.2264
     25  O         11.0350   45.3320   14.4360 O.2     9  HIS9       -0.2867
     26  CB        11.4870   42.5490   14.5420 C.3     9  HIS9        0.0745
     27  CG        11.9150   41.1580   14.9000 C.ar    9  HIS9        0.0817
     28  ND1       12.4560   40.2850   13.9800 N.ar    9  HIS9       -0.2268
     29  CD2       11.8840   40.4910   16.0770 C.ar    9  HIS9        0.1154
     30  CE1       12.7390   39.1410   14.5760 C.ar    9  HIS9        0.1986
     31  NE2       12.4020   39.2380   15.8480 N.ar    9  HIS9       -0.2212
     32  N         11.3010   45.7900   11.0370 N.3    11  VAL11      -0.1231
     33  CA        10.6860   45.5940    9.7280 C.3    11  VAL11       0.1692
     34  C          9.2920   46.2260    9.6720 C.2    11  VAL11       0.2591
     35  O          8.9950   47.1570   10.4220 O.2    11  VAL11      -0.2718
     36  CB        10.5850   44.0940    9.3800 C.3    11  VAL11       0.0266
     37  CG1        9.6770   43.2950   10.2790 C.3    11  VAL11       0.0020
     38  CG2       10.2640   43.8830    7.9090 C.3    11  VAL11       0.0020
     39  N          8.4440   45.6990    8.7890 N.am   12  LEU12      -0.1980
     40  CA         7.0770   46.1860    8.6080 C.3    12  LEU12       0.1596
     41  C          7.0360   47.6420    8.1400 C.2    12  LEU12       0.2287
     42  O          7.5210   47.9580    7.0520 O.2    12  LEU12      -0.2864
     43  CB         6.2630   46.0030    9.8960 C.3    12  LEU12       0.0297
     44  CG         6.1340   44.5750   10.4100 C.3    12  LEU12       0.0022
     45  CD1        5.4920   44.5320   11.7800 C.3    12  LEU12       0.0001
     46  CD2        5.3490   43.6980    9.4510 C.3    12  LEU12       0.0001
     47  N          1.3050   38.7370   10.3780 N.3    22  ALA22      -0.1245
     48  CA         1.9800   38.5730   11.6620 C.3    22  ALA22       0.1562
     49  C          0.9950   38.7310   12.8190 C.2    22  ALA22       0.2260
     50  O          1.3270   38.4440   13.9710 O.2    22  ALA22      -0.2867
     51  CB         3.1130   39.5800   11.7910 C.3    22  ALA22       0.0290
     52  N         -0.9050   34.8800   12.4380 N.3    25  MET25      -0.1230
     53  CA        -0.0290   33.7680   12.7940 C.3    25  MET25       0.1702
     54  C          0.3830   33.8260   14.2630 C.2    25  MET25       0.2592
     55  O          0.7950   32.8190   14.8420 O.2    25  MET25      -0.2718
     56  CB         1.2190   33.7720   11.9080 C.3    25  MET25       0.0401
     57  CG         2.2480   32.7200   12.2250 C.3    25  MET25       0.0596
     58  SD         3.4460   32.5570   10.8740 S.3    25  MET25      -0.1393
     59  CE         4.4000   33.9710   11.0770 C.3    25  MET25       0.0692
     60  N          0.3310   35.0230   14.8420 N.am   26  HIS26      -0.1976
     61  CA         0.6830   35.2160   16.2430 C.3    26  HIS26       0.1656
     62  C         -0.5640   35.1270   17.1190 C.2    26  HIS26       0.2291
     63  O         -0.4700   35.0420   18.3460 O.2    26  HIS26      -0.2864
     64  CB         1.3660   36.5690   16.4400 C.3    26  HIS26       0.0771
     65  CG         2.0970   36.6890   17.7350 C.ar   26  HIS26       0.0820
     66  ND1        3.4130   36.3240   17.8850 N.ar   26  HIS26      -0.2267
     67  CD2        1.7030   37.1750   18.9320 C.ar   26  HIS26       0.1154
     68  CE1        3.8190   36.6120   19.1080 C.ar   26  HIS26       0.1986
     69  NE2        2.7990   37.1340   19.7640 N.ar   26  HIS26      -0.2212
     70  N         -1.0480   31.3500   17.4130 N.3    29  LEU29      -0.1245
     71  CA         0.0750   30.7670   18.1390 C.3    29  LEU29       0.1561
     72  C         -0.0940   30.9890   19.6380 C.2    29  LEU29       0.2260
     73  O          0.4450   30.2390   20.4550 O.2    29  LEU29      -0.2867
     74  CB         1.3900   31.3900   17.6680 C.3    29  LEU29       0.0270
     75  CG         2.3630   30.5410   16.8560 C.3    29  LEU29       0.0019
     76  CD1        1.6840   29.9020   15.6770 C.3    29  LEU29       0.0001
     77  CD2        3.4720   31.4330   16.3660 C.3    29  LEU29       0.0001
     78  N          2.1910   36.6400    2.9930 N.3   109  TRP109     -0.1241
     79  CA         3.6140   36.9380    3.1100 C.3   109  TRP109      0.1605
     80  C          4.3080   36.8660    1.7490 C.2   109  TRP109      0.2264
     81  O          5.0980   37.7430    1.3990 O.2   109  TRP109     -0.2867
     82  CB         4.2670   35.9560    4.0940 C.3   109  TRP109      0.0550
     83  CG         5.7370   36.1770    4.3340 C.ar  109  TRP109      0.0003
     84  CD1        6.7740   35.5450    3.7080 C.ar  109  TRP109      0.0946
     85  CD2        6.3290   37.0720    5.2820 C.ar  109  TRP109      0.0152
     86  NE1        7.9750   35.9860    4.2080 N.ar  109  TRP109     -0.2442
     87  CE2        7.7320   36.9250    5.1770 C.ar  109  TRP109      0.0810
     88  CE3        5.8150   37.9830    6.2150 C.ar  109  TRP109      0.0012
     89  CZ2        8.6250   37.6570    5.9690 C.ar  109  TRP109      0.0191
     90  CZ3        6.7040   38.7110    7.0030 C.ar  109  TRP109      0.0001
     91  CH2        8.0930   38.5420    6.8730 C.ar  109  TRP109      0.0015
@<TRIPOS>BOND
     1    81    80    2
     2    80    79    1
     3    78    79    1
     4    79    82    1
     5    84    86   ar
     6    84    83   ar
     7    82    83    1
     8    86    87   ar
     9    83    85   ar
    10    87    85   ar
    11    87    89   ar
    12    85    88   ar
    13    89    91   ar
    14    88    90   ar
    15    91    90   ar
    16    42    41    2
    17    19    17   ar
    18    19    21   ar
    19    16    17   ar
    20    16    14   ar
    21    38    36    1
    22    17    15   ar
    23    41    40    1
    24    21    20   ar
    25    14    13   ar
    26    40    39    1
    27    40    43    1
    28    39    34   am
    29    36    33    1
    30    36    37    1
    31     5     2    1
    32     5     6    1
    33    46    44    1
    34    15    13   ar
    35    15    18   ar
    36    20    18   ar
    37    34    33    1
    38    34    35    2
    39    33    32    1
    40    13    12    1
    41    43    44    1
    42     2     3    1
    43     2     1    1
    44    47    48    1
    45     6     7    1
    46    44    45    1
    47     8     3   am
    48     8     9    1
    49    58    59    1
    50    58    57    1
    51     3     4    2
    52     7     1    1
    53     9    12    1
    54     9    10    1
    55    48    51    1
    56    48    49    1
    57    56    57    1
    58    56    53    1
    59    52    53    1
    60    10    11    2
    61    53    54    1
    62    49    50    2
    63    28    30   ar
    64    28    27   ar
    65    24    25    2
    66    24    23    1
    67    54    55    2
    68    54    60   am
    69    23    26    1
    70    23    22    1
    71    26    27    1
    72    30    31   ar
    73    60    61    1
    74    27    29   ar
    75    76    75    1
    76    31    29   ar
    77    61    64    1
    78    61    62    1
    79    77    75    1
    80    64    65    1
    81    75    74    1
    82    62    63    2
    83    70    71    1
    84    74    71    1
    85    65    66   ar
    86    65    67   ar
    87    66    68   ar
    88    71    72    1
    89    67    69   ar
    90    68    69   ar
    91    72    73    2
