@<TRIPOS>MOLECULE
tmp/1izlC08.pdb
 142 133 0 0 0
SMALL
GASTEIGER

@<TRIPOS>ATOM
      1  N         48.1060   61.4770   82.8030 N.3    46  ALA46      -0.1231
      2  CA        49.1970   60.6130   82.3690 C.3    46  ALA46       0.1694
      3  C         50.5120   61.3830   82.2630 C.2    46  ALA46       0.2592
      4  O         51.3650   61.0630   81.4300 O.2    46  ALA46      -0.2718
      5  CB        48.8510   59.9690   81.0390 C.3    46  ALA46       0.0304
      6  N         50.6760   62.3890   83.1170 N.am   47  THR47      -0.1953
      7  CA        51.8760   63.2160   83.1240 C.3    47  THR47       0.1897
      8  C         51.9090   64.1070   84.3590 C.2    47  THR47       0.2313
      9  O         52.9690   64.3310   84.9480 O.2    47  THR47      -0.2863
     10  CB        51.9380   64.1130   81.8750 C.3    47  THR47       0.1794
     11  OG1       52.1170   63.2900   80.7610 O.3    47  THR47      -0.2208
     12  CG2       53.0260   65.2130   81.8580 C.3    47  THR47       0.0378
     13  N         61.4220   69.2660   68.1480 N.3   114  LEU114     -0.1245
     14  CA        60.3920   68.2960   68.5060 C.3   114  LEU114      0.1561
     15  C         61.0100   67.1230   69.2590 C.2   114  LEU114      0.2260
     16  O         60.3100   66.3950   69.9690 O.2   114  LEU114     -0.2867
     17  CB        59.6770   67.7880   67.2520 C.3   114  LEU114      0.0270
     18  CG        58.3730   67.0380   67.4980 C.3   114  LEU114      0.0019
     19  CD1       57.2770   67.9940   67.8170 C.3   114  LEU114      0.0001
     20  CD2       57.9260   66.2140   66.2880 C.3   114  LEU114      0.0001
     21  N         61.6860   68.3500   72.6600 N.3   117  GLY117     -0.1210
     22  CA        60.4130   68.7870   73.2050 C.3   117  GLY117      0.1956
     23  C         59.5220   67.6110   73.5590 C.2   117  GLY117      0.2611
     24  O         58.4960   67.7780   74.2240 O.2   117  GLY117     -0.2717
     25  N         59.8930   66.4300   73.0760 N.am  118  ALA118     -0.1979
     26  CA        59.1440   65.2050   73.3410 C.3   118  ALA118      0.1597
     27  C         59.8940   64.3430   74.3500 C.2   118  ALA118      0.2287
     28  O         59.2920   63.5210   75.0440 O.2   118  ALA118     -0.2864
     29  CB        58.9220   64.4340   72.0490 C.3   118  ALA118      0.0319
     30  N         59.6940   66.4480   77.7490 N.3   121  LEU121     -0.1231
     31  CA        58.3530   66.4480   78.3190 C.3   121  LEU121      0.1693
     32  C         58.0050   65.0870   78.9170 C.2   121  LEU121      0.2591
     33  O         57.1240   64.9830   79.7740 O.2   121  LEU121     -0.2718
     34  CB        57.3240   66.8240   77.2500 C.3   121  LEU121      0.0284
     35  CG        55.8710   66.9690   77.6760 C.3   121  LEU121      0.0019
     36  CD1       55.6690   68.2250   78.5150 C.3   121  LEU121      0.0001
     37  CD2       54.9540   66.9980   76.4560 C.3   121  LEU121      0.0001
     38  N         58.6710   64.0440   78.4290 N.am  122  VAL122     -0.1980
     39  CA        58.4440   62.6850   78.9110 C.3   122  VAL122      0.1595
     40  C         59.3570   62.3640   80.0890 C.2   122  VAL122      0.2287
     41  O         58.9460   61.6950   81.0380 O.2   122  VAL122     -0.2864
     42  CB        58.6820   61.6490   77.8000 C.3   122  VAL122      0.0276
     43  CG1       58.7510   60.2290   78.3920 C.3   122  VAL122      0.0022
     44  CG2       57.5860   61.7430   76.7470 C.3   122  VAL122      0.0022
     45  N         53.6770   59.8220   86.1910 N.3   131  LEU131     -0.1245
     46  CA        52.4380   59.2790   85.6370 C.3   131  LEU131      0.1561
     47  C         51.6290   58.5260   86.6920 C.2   131  LEU131      0.2260
     48  O         51.7320   58.8170   87.8860 O.2   131  LEU131     -0.2867
     49  CB        52.7400   58.3690   84.4410 C.3   131  LEU131      0.0270
     50  CG        53.2590   59.0700   83.1840 C.3   131  LEU131      0.0019
     51  CD1       54.2320   60.1980   83.2580 C.3   131  LEU131      0.0001
     52  CD2       53.5320   57.9990   82.1320 C.3   131  LEU131      0.0001
     53  N         54.4550   48.2030   66.6880 N.3   153  GLY153     -0.1210
     54  CA        53.9710   47.7460   67.9780 C.3   153  GLY153      0.1956
     55  C         53.4040   48.8830   68.8030 C.2   153  GLY153      0.2611
     56  O         54.1190   49.5080   69.5890 O.2   153  GLY153     -0.2717
     57  N         52.1200   49.1640   68.6050 N.am  154  TRP154     -0.1976
     58  CA        51.4430   50.2320   69.3310 C.3   154  TRP154      0.1640
     59  C         51.2050   49.8580   70.7910 C.2   154  TRP154      0.2290
     60  O         51.2790   50.7100   71.6770 O.2   154  TRP154     -0.2864
     61  CB        50.1140   50.5720   68.6540 C.3   154  TRP154      0.0576
     62  CG        49.1710   49.3890   68.4200 C.ar  154  TRP154      0.0006
     63  CD1       48.3540   48.8290   69.3180 C.ar  154  TRP154      0.0946
     64  CD2       49.0060   48.6930   67.1860 C.ar  154  TRP154      0.0152
     65  NE1       47.6600   47.7680   68.6600 N.ar  154  TRP154     -0.2442
     66  CE2       48.0560   47.7030   67.4090 C.ar  154  TRP154      0.0810
     67  CE3       49.5800   48.8140   65.9110 C.ar  154  TRP154      0.0012
     68  CZ2       47.6340   46.8090   66.4150 C.ar  154  TRP154      0.0191
     69  CZ3       49.1510   47.9080   64.9190 C.ar  154  TRP154      0.0001
     70  CH2       48.2230   46.9520   65.1610 C.ar  154  TRP154      0.0015
     71  N         52.8590   48.7120   73.1830 N.3   156  VAL156     -0.1245
     72  CA        54.1420   48.5180   73.8520 C.3   156  VAL156      0.1561
     73  C         54.0520   48.8340   75.3450 C.2   156  VAL156      0.2260
     74  O         55.0100   48.6210   76.0890 O.2   156  VAL156     -0.2867
     75  CB        55.2420   49.3900   73.2180 C.3   156  VAL156      0.0252
     76  CG1       55.0350   50.8750   73.3630 C.3   156  VAL156      0.0019
     77  CG2       56.6270   48.9590   73.6730 C.3   156  VAL156      0.0019
     78  N         58.0580   53.0300   78.1600 N.3   164  VAL164     -0.1231
     79  CA        57.4710   54.0440   77.2910 C.3   164  VAL164      0.1692
     80  C         58.2620   55.3490   77.3380 C.2   164  VAL164      0.2591
     81  O         58.4570   56.0040   76.3120 O.2   164  VAL164     -0.2718
     82  CB        56.0100   54.3350   77.6850 C.3   164  VAL164      0.0266
     83  CG1       55.3840   55.4010   76.7920 C.3   164  VAL164      0.0020
     84  CG2       55.1980   53.0460   77.5350 C.3   164  VAL164      0.0020
     85  N         58.6710   55.7390   78.5420 N.am  165  VAL165     -0.1980
     86  CA        59.4400   56.9630   78.7520 C.3   165  VAL165      0.1595
     87  C         60.8820   56.8170   78.2680 C.2   165  VAL165      0.2287
     88  O         61.4730   57.7730   77.7640 O.2   165  VAL165     -0.2864
     89  CB        59.4570   57.3660   80.2390 C.3   165  VAL165      0.0276
     90  CG1       60.5150   58.4560   80.4910 C.3   165  VAL165      0.0022
     91  CG2       58.0770   57.8420   80.6730 C.3   165  VAL165      0.0022
     92  N         61.6930   57.2800   74.4750 N.3   168  HIS168     -0.1241
     93  CA        61.6720   58.6350   73.9380 C.3   168  HIS168      0.1621
     94  C         63.0280   59.3160   74.1050 C.2   168  HIS168      0.2264
     95  O         63.3830   60.2060   73.3330 O.2   168  HIS168     -0.2867
     96  CB        60.5940   59.4690   74.6360 C.3   168  HIS168      0.0745
     97  CG        59.2120   58.8990   74.5160 C.ar  168  HIS168      0.0817
     98  ND1       58.8080   58.1500   73.4320 N.ar  168  HIS168     -0.2268
     99  CD2       58.1460   58.9710   75.3450 C.ar  168  HIS168      0.1154
    100  CE1       57.5500   57.7840   73.6010 C.ar  168  HIS168      0.1986
    101  NE2       57.1240   58.2690   74.7520 N.ar  168  HIS168     -0.2212
    102  N         65.3840   57.2330   71.2160 N.3   171  ILE171     -0.1245
    103  CA        64.9560   57.5080   69.8480 C.3   171  ILE171      0.1561
    104  C         64.7400   58.9980   69.5940 C.2   171  ILE171      0.2260
    105  O         64.4840   59.4090   68.4580 O.2   171  ILE171     -0.2867
    106  CB        63.6580   56.7520   69.5070 C.3   171  ILE171      0.0252
    107  CG1       63.7800   55.2290   69.7890 C.3   171  ILE171      0.0019
    108  CG2       63.1820   56.9560   68.0860 C.3   171  ILE171      0.0019
    109  CD1       62.4410   54.5340   69.9600 C.3   171  ILE171      0.0001
    110  N         49.9610   57.3680   62.6120 N.3   206  MET206     -0.1245
    111  CA        50.1170   57.3330   64.0600 C.3   206  MET206      0.1570
    112  C         48.8060   57.7160   64.7450 C.2   206  MET206      0.2261
    113  O         48.6690   57.5670   65.9590 O.2   206  MET206     -0.2867
    114  CB        51.2290   58.2880   64.4980 C.3   206  MET206      0.0387
    115  CG        52.6360   58.0060   64.0130 C.3   206  MET206      0.0595
    116  SD        53.2350   56.3760   64.4190 S.3   206  MET206     -0.1393
    117  CE        53.3770   56.5460   66.2700 C.3   206  MET206      0.0692
    118  N         45.4920   52.1280   70.3350 N.3   213  PHE213     -0.1227
    119  CA        46.5120   51.9240   71.3570 C.3   213  PHE213      0.1736
    120  C         46.1220   52.6530   72.6400 C.2   213  PHE213      0.2595
    121  O         46.5770   52.3010   73.7290 O.2   213  PHE213     -0.2718
    122  CB        47.8680   52.4310   70.8640 C.3   213  PHE213      0.0547
    123  CG        48.7790   52.5980   72.0220 C.ar  213  PHE213     -0.0202
    124  CD1       49.2990   51.4590   72.6620 C.ar  213  PHE213     -0.0042
    125  CD2       49.0510   53.8370   72.5600 C.ar  213  PHE213     -0.0042
    126  CE1       50.1040   51.5690   73.7890 C.ar  213  PHE213     -0.0003
    127  CE2       49.8100   53.9880   73.7230 C.ar  213  PHE213     -0.0003
    128  CZ        50.3400   52.8150   74.3410 C.ar  213  PHE213     -0.0000
    129  N         45.3190   53.7020   72.4940 N.am  214  VAL214     -0.1980
    130  CA        44.8520   54.4850   73.6310 C.3   214  VAL214      0.1595
    131  C         43.4770   53.9950   74.0840 C.2   214  VAL214      0.2287
    132  O         42.7010   54.7470   74.6790 O.2   214  VAL214     -0.2864
    133  CB        44.7660   55.9840   73.2830 C.3   214  VAL214      0.0276
    134  CG1       44.2690   56.8120   74.4630 C.3   214  VAL214      0.0022
    135  CG2       46.1650   56.4790   72.9060 C.3   214  VAL214      0.0022
    136  N         47.3920   53.0820   78.7130 N.3   219  THR219     -0.1218
    137  CA        47.0430   54.3910   78.1560 C.3   219  THR219      0.1862
    138  C         46.2320   55.2420   79.1300 C.2   219  THR219      0.2287
    139  O         46.6770   56.3140   79.5450 O.2   219  THR219     -0.2866
    140  CB        46.2650   54.2610   76.8290 C.3   219  THR219      0.1770
    141  OG1       46.8710   53.1550   76.2560 O.3   219  THR219     -0.2211
    142  CG2       47.0280   55.3340   76.0770 C.3   219  THR219      0.0375
@<TRIPOS>BOND
     1   110   111    1
     2   115   116    1
     3   115   114    1
     4   111   114    1
     5   111   112    1
     6   116   117    1
     7   112   113    2
     8    69    70   ar
     9    69    67   ar
    10    70    68   ar
    11    67    64   ar
    12    20    18    1
    13    68    66   ar
    14    53    54    1
    15    64    66   ar
    16    64    62   ar
    17    17    18    1
    18    17    14    1
    19    66    65   ar
    20    18    19    1
    21    54    55    1
    22   108   106    1
    23    13    14    1
    24    62    61    1
    25    62    63   ar
    26   105   104    2
    27    14    15    1
    28    57    55   am
    29    57    58    1
    30    61    58    1
    31    65    63   ar
    32    55    56    2
    33    15    16    2
    34    58    59    1
    35   106   107    1
    36   106   103    1
    37   104   103    1
    38   107   109    1
    39   103   102    1
    40   118   119    1
    41    59    60    2
    42   122   119    1
    43   122   123    1
    44   119   120    1
    45   123   125   ar
    46   123   124   ar
    47    29    26    1
    48   129   120   am
    49   129   130    1
    50   125   127   ar
    51   120   121    2
    52    21    22    1
    53   124   126   ar
    54   135   133    1
    55    25    26    1
    56    25    23   am
    57    71    72    1
    58    22    23    1
    59    75    76    1
    60    75    77    1
    61    75    72    1
    62   133   130    1
    63   133   134    1
    64    95    94    2
    65    26    27    1
    66    98   100   ar
    67    98    97   ar
    68    23    24    2
    69   100   101   ar
    70   130   131    1
    71   127   128   ar
    72   126   128   ar
    73    72    73    1
    74    93    94    1
    75    93    92    1
    76    93    96    1
    77   131   132    2
    78    27    28    2
    79    97    96    1
    80    97    99   ar
    81   101    99   ar
    82    73    74    2
    83   142   140    1
    84   141   140    1
    85    81    80    2
    86    37    35    1
    87    44    42    1
    88    83    82    1
    89   140   137    1
    90    34    35    1
    91    34    31    1
    92    79    80    1
    93    79    82    1
    94    79    78    1
    95    80    85   am
    96    84    82    1
    97    35    36    1
    98    30    31    1
    99    88    87    2
   100    42    43    1
   101    42    39    1
   102   137   136    1
   103   137   138    1
   104    87    86    1
   105    31    32    1
   106    38    39    1
   107    38    32   am
   108    85    86    1
   109    86    89    1
   110    39    40    1
   111    32    33    2
   112   138   139    2
   113    40    41    2
   114    89    90    1
   115    89    91    1
   116    11    10    1
   117     5     2    1
   118     4     3    2
   119    12    10    1
   120    10     7    1
   121    52    50    1
   122     3     2    1
   123     3     6   am
   124     2     1    1
   125     6     7    1
   126     7     8    1
   127    50    51    1
   128    50    49    1
   129     8     9    2
   130    49    46    1
   131    46    45    1
   132    46    47    1
   133    47    48    2
