@<TRIPOS>MOLECULE
tmp/1izlB14.pdb
 110 108 0 0 0
SMALL
GASTEIGER

@<TRIPOS>ATOM
      1  N         -4.1240   68.4890   18.1850 N.3   213  TYR213     -0.1241
      2  CA        -2.8000   68.7140   18.7680 C.3   213  TYR213      0.1605
      3  C         -1.7410   68.9760   17.6920 C.2   213  TYR213      0.2264
      4  O         -2.0610   69.4600   16.6060 O.2   213  TYR213     -0.2867
      5  CB        -2.3820   67.5370   19.6620 C.3   213  TYR213      0.0534
      6  CG        -3.4180   67.3350   20.7110 C.ar  213  TYR213     -0.0201
      7  CD1       -3.8850   68.4410   21.4410 C.ar  213  TYR213     -0.0009
      8  CD2       -3.9850   66.0660   20.9280 C.ar  213  TYR213     -0.0009
      9  CE1       -4.8870   68.2970   22.3880 C.ar  213  TYR213      0.0417
     10  CE2       -5.0060   65.9090   21.8520 C.ar  213  TYR213      0.0417
     11  CZ        -5.4450   67.0340   22.5870 C.ar  213  TYR213      0.1957
     12  OH        -6.4080   66.9010   23.5480 O.3   213  TYR213     -0.2866
     13  N          0.0180   53.0010   19.9110 N.3   226  SER226     -0.1202
     14  CA         0.1630   53.4360   21.2960 C.3   226  SER226      0.2020
     15  C         -1.1960   53.5630   21.9830 C.2   226  SER226      0.2619
     16  O         -1.2750   53.7230   23.2020 O.2   226  SER226     -0.2717
     17  CB         0.9040   54.7730   21.3550 C.3   226  SER226      0.2103
     18  OG         0.1720   55.8300   20.8350 O.3   226  SER226     -0.2182
     19  N         -2.2610   53.5390   21.1870 N.am  227  SER227     -0.1951
     20  CA        -3.6190   53.6340   21.7100 C.3   227  SER227      0.1924
     21  C         -4.0820   52.2700   22.2120 C.2   227  SER227      0.2314
     22  O         -5.0880   52.1640   22.9170 O.2   227  SER227     -0.2863
     23  CB        -4.5700   54.1410   20.6250 C.3   227  SER227      0.2116
     24  OG        -4.2820   55.4560   20.3050 O.3   227  SER227     -0.2180
     25  N         -2.2590   51.6690   25.9740 N.3   230  ALA230     -0.1245
     26  CA        -2.9270   52.3480   27.0790 C.3   230  ALA230      0.1562
     27  C         -4.2080   51.6130   27.4660 C.2   230  ALA230      0.2260
     28  O         -4.7540   51.8270   28.5510 O.2   230  ALA230     -0.2867
     29  CB        -3.2390   53.7870   26.6970 C.3   230  ALA230      0.0290
     30  N         -3.3470   48.5690   29.9640 N.3   233  PHE233     -0.1227
     31  CA        -3.0770   48.9330   31.3510 C.3   233  PHE233      0.1736
     32  C         -4.3650   49.1050   32.1530 C.2   233  PHE233      0.2595
     33  O         -4.3390   49.1530   33.3850 O.2   233  PHE233     -0.2718
     34  CB        -2.2610   50.2270   31.4070 C.3   233  PHE233      0.0547
     35  CG        -1.9260   50.7260   32.7950 C.ar  233  PHE233     -0.0202
     36  CD1       -1.2450   49.9600   33.7000 C.ar  233  PHE233     -0.0042
     37  CD2       -2.2550   52.0020   33.1750 C.ar  233  PHE233     -0.0042
     38  CE1       -0.8530   50.4100   34.9430 C.ar  233  PHE233     -0.0003
     39  CE2       -1.8620   52.5090   34.4390 C.ar  233  PHE233     -0.0003
     40  CZ        -1.2080   51.6890   35.2940 C.ar  233  PHE233     -0.0000
     41  N         -5.4820   49.2500   31.4460 N.am  234  PHE234     -0.1976
     42  CA        -6.7830   49.4210   32.0820 C.3   234  PHE234      0.1639
     43  C         -7.6000   48.1320   32.0400 C.2   234  PHE234      0.2290
     44  O         -8.6130   48.0050   32.7330 O.2   234  PHE234     -0.2864
     45  CB        -7.5590   50.5510   31.4010 C.3   234  PHE234      0.0560
     46  CG        -7.3040   51.9720   31.8100 C.ar  234  PHE234     -0.0200
     47  CD1       -6.3150   52.2210   32.6570 C.ar  234  PHE234     -0.0042
     48  CD2       -8.0010   53.0180   31.2660 C.ar  234  PHE234     -0.0042
     49  CE1       -6.0150   53.5480   33.0730 C.ar  234  PHE234     -0.0003
     50  CE2       -7.6700   54.3460   31.6420 C.ar  234  PHE234     -0.0003
     51  CZ        -6.7220   54.5810   32.5510 C.ar  234  PHE234     -0.0000
     52  N          3.5020   48.3870   30.0470 N.3   305  PHE305     -0.1227
     53  CA         2.5160   49.4450   29.8500 C.3   305  PHE305      0.1736
     54  C          3.0830   50.7900   30.2980 C.2   305  PHE305      0.2595
     55  O          2.6690   51.8440   29.8120 O.2   305  PHE305     -0.2718
     56  CB         1.2360   49.1320   30.6290 C.3   305  PHE305      0.0547
     57  CG         0.4260   50.3680   30.7570 C.ar  305  PHE305     -0.0202
     58  CD1       -0.2390   50.8780   29.6280 C.ar  305  PHE305     -0.0042
     59  CD2        0.3880   51.0930   31.9270 C.ar  305  PHE305     -0.0042
     60  CE1       -0.9560   52.0670   29.6890 C.ar  305  PHE305     -0.0003
     61  CE2       -0.2740   52.3210   32.0160 C.ar  305  PHE305     -0.0003
     62  CZ        -0.9560   52.8050   30.8590 C.ar  305  PHE305     -0.0000
     63  N          4.0000   50.7450   31.2590 N.am  306  PHE306     -0.1976
     64  CA         4.6380   51.9500   31.7770 C.3   306  PHE306      0.1639
     65  C          5.9210   52.2400   31.0030 C.2   306  PHE306      0.2290
     66  O          6.3250   53.3970   30.8580 O.2   306  PHE306     -0.2864
     67  CB         4.9530   51.7870   33.2660 C.3   306  PHE306      0.0560
     68  CG         5.6350   52.9680   33.9210 C.ar  306  PHE306     -0.0200
     69  CD1        5.0860   54.2200   33.9150 C.ar  306  PHE306     -0.0042
     70  CD2        6.8170   52.8030   34.5950 C.ar  306  PHE306     -0.0042
     71  CE1        5.6400   55.3010   34.5690 C.ar  306  PHE306     -0.0003
     72  CE2        7.4150   53.8850   35.2900 C.ar  306  PHE306     -0.0003
     73  CZ         6.8290   55.1030   35.2250 C.ar  306  PHE306     -0.0000
     74  N          4.5140   51.9420   26.7340 N.3   309  HIS309     -0.1226
     75  CA         3.7440   53.0650   26.2110 C.3   309  HIS309      0.1752
     76  C          4.5810   54.3420   26.1720 C.2   309  HIS309      0.2595
     77  O          4.2630   55.2780   25.4370 O.2   309  HIS309     -0.2718
     78  CB         2.4890   53.2920   27.0550 C.3   309  HIS309      0.0759
     79  CG         1.6630   54.4070   26.4910 C.ar  309  HIS309      0.0818
     80  ND1        0.7520   54.1960   25.4910 N.ar  309  HIS309     -0.2268
     81  CD2        1.6240   55.7400   26.7720 C.ar  309  HIS309      0.1154
     82  CE1        0.1700   55.3450   25.1680 C.ar  309  HIS309      0.1986
     83  NE2        0.6850   56.2880   25.9390 N.ar  309  HIS309     -0.2212
     84  N          5.6230   54.3880   26.9980 N.am  310  ILE310     -0.1980
     85  CA         6.5130   55.5430   27.0590 C.3   310  ILE310      0.1595
     86  C          7.5090   55.5190   25.9020 C.2   310  ILE310      0.2287
     87  O          7.9180   56.5680   25.4000 O.2   310  ILE310     -0.2864
     88  CB         7.2940   55.5780   28.3860 C.3   310  ILE310      0.0276
     89  CG1        7.8640   56.9730   28.6550 C.3   310  ILE310      0.0022
     90  CG2        8.2810   54.4130   28.4880 C.3   310  ILE310      0.0022
     91  CD1        8.2670   57.1850   30.0740 C.3   310  ILE310      0.0001
     92  N          5.3360   56.1660   22.8630 N.3   313  GLY313     -0.1225
     93  CA         4.7560   57.4970   22.8810 C.3   313  GLY313      0.1811
     94  C          5.6830   58.5560   22.3180 C.2   313  GLY313      0.2280
     95  O          5.2280   59.6100   21.8670 O.2   313  GLY313     -0.2866
     96  N          5.8180   58.2490   18.4490 N.3   316  THR316     -0.1203
     97  CA         4.4560   58.3690   17.9430 C.3   316  THR316      0.1994
     98  C          4.1950   59.7340   17.3150 C.2   316  THR316      0.2617
     99  O          3.4540   59.8430   16.3370 O.2   316  THR316     -0.2717
    100  CB         3.4250   58.1360   19.0600 C.3   316  THR316      0.1784
    101  OG1        2.7810   56.8920   18.8170 O.3   316  THR316     -0.2211
    102  CG2        2.4520   59.2530   19.1950 C.3   316  THR316      0.0376
    103  N          4.7970   60.7740   17.8870 N.am  317  LEU317     -0.1979
    104  CA         4.6220   62.1350   17.3880 C.3   317  LEU317      0.1596
    105  C          5.9440   62.9000   17.3270 C.2   317  LEU317      0.2287
    106  O          6.0690   63.9970   17.8810 O.2   317  LEU317     -0.2864
    107  CB         3.6140   62.8870   18.2630 C.3   317  LEU317      0.0297
    108  CG         4.0740   63.2370   19.6750 C.3   317  LEU317      0.0022
    109  CD1        4.6990   64.6810   19.7150 C.3   317  LEU317      0.0001
    110  CD2        2.8720   63.2190   20.5910 C.3   317  LEU317      0.0001
@<TRIPOS>BOND
     1    99    98    2
     2     4     3    2
     3    98   103   am
     4    98    97    1
     5   105   104    1
     6   105   106    2
     7   104   103    1
     8   104   107    1
     9     3     2    1
    10    97    96    1
    11    97   100    1
    12     1     2    1
    13   107   108    1
    14     2     5    1
    15   101   100    1
    16   100   102    1
    17     5     6    1
    18   108   109    1
    19   108   110    1
    20    13    14    1
    21    24    23    1
    22    23    20    1
    23     6     8   ar
    24     6     7   ar
    25    18    17    1
    26     8    10   ar
    27    19    20    1
    28    19    15   am
    29    14    17    1
    30    14    15    1
    31     7     9   ar
    32    20    21    1
    33    10    11   ar
    34    95    94    2
    35    15    16    2
    36    21    22    2
    37    94    93    1
    38     9    11   ar
    39    11    12    1
    40    92    93    1
    41    82    80   ar
    42    82    83   ar
    43    87    86    2
    44    77    76    2
    45    80    79   ar
    46    86    85    1
    47    83    81   ar
    48    25    26    1
    49    76    75    1
    50    76    84   am
    51    75    74    1
    52    75    78    1
    53    79    81   ar
    54    79    78    1
    55    29    26    1
    56    84    85    1
    57    85    88    1
    58    26    27    1
    59    27    28    2
    60    88    90    1
    61    88    89    1
    62    89    91    1
    63    58    60   ar
    64    58    57   ar
    65    60    62   ar
    66    55    54    2
    67    53    52    1
    68    53    54    1
    69    53    56    1
    70    30    31    1
    71    54    63   am
    72    56    57    1
    73    57    59   ar
    74    66    65    2
    75    62    61   ar
    76    65    64    1
    77    63    64    1
    78    48    50   ar
    79    48    46   ar
    80    31    34    1
    81    31    32    1
    82    45    46    1
    83    45    42    1
    84    34    35    1
    85    41    42    1
    86    41    32   am
    87    50    51   ar
    88    64    67    1
    89    46    47   ar
    90    59    61   ar
    91    43    42    1
    92    43    44    2
    93    32    33    2
    94    51    49   ar
    95    47    49   ar
    96    35    37   ar
    97    35    36   ar
    98    37    39   ar
    99    67    68    1
   100    36    38   ar
   101    69    68   ar
   102    69    71   ar
   103    68    70   ar
   104    39    40   ar
   105    71    73   ar
   106    70    72   ar
   107    38    40   ar
   108    73    72   ar
