@<TRIPOS>MOLECULE
tmp/1izlB08.pdb
 138 132 0 0 0
SMALL
GASTEIGER

@<TRIPOS>ATOM
      1  N         11.3010   45.7900   11.0370 N.3    11  VAL11      -0.1231
      2  CA        10.6860   45.5940    9.7280 C.3    11  VAL11       0.1692
      3  C          9.2920   46.2260    9.6720 C.2    11  VAL11       0.2592
      4  O          8.9950   47.1570   10.4220 O.2    11  VAL11      -0.2718
      5  CB        10.5850   44.0940    9.3800 C.3    11  VAL11       0.0266
      6  CG1        9.6770   43.2950   10.2790 C.3    11  VAL11       0.0020
      7  CG2       10.2640   43.8830    7.9090 C.3    11  VAL11       0.0020
      8  N          8.4440   45.6990    8.7890 N.am   12  LEU12      -0.1966
      9  CA         7.0770   46.1860    8.6080 C.3    12  LEU12       0.1728
     10  C          7.0360   47.6420    8.1400 C.2    12  LEU12       0.2616
     11  O          7.5210   47.9580    7.0520 O.2    12  LEU12      -0.2715
     12  CB         6.2630   46.0030    9.8960 C.3    12  LEU12       0.0311
     13  CG         6.1340   44.5750   10.4100 C.3    12  LEU12       0.0022
     14  CD1        5.4920   44.5320   11.7800 C.3    12  LEU12       0.0001
     15  CD2        5.3490   43.6980    9.4510 C.3    12  LEU12       0.0001
     16  N          6.4900   48.5220    8.9800 N.am   13  ILE13      -0.1977
     17  CA         6.3600   49.9480    8.6790 C.3    13  ILE13       0.1596
     18  C          5.3860   50.1920    7.5260 C.2    13  ILE13       0.2287
     19  O          4.2050   50.4550    7.7560 O.2    13  ILE13      -0.2864
     20  CB         7.7260   50.6030    8.3640 C.3    13  ILE13       0.0276
     21  CG1        8.7860   50.3730    9.4500 C.3    13  ILE13       0.0022
     22  CG2        7.4930   52.1200    8.1010 C.3    13  ILE13       0.0022
     23  CD1        8.4370   50.8880   10.8160 C.3    13  ILE13       0.0001
     24  N          2.1160   42.1950    5.5290 N.3    18  ARG18      -0.1231
     25  CA         2.9050   41.4990    6.5400 C.3    18  ARG18       0.1694
     26  C          2.4220   41.8280    7.9520 C.2    18  ARG18       0.2591
     27  O          2.7430   41.1160    8.9060 O.2    18  ARG18      -0.2718
     28  CB         4.3850   41.8630    6.3970 C.3    18  ARG18       0.0321
     29  CG         4.8650   41.3550    5.0430 C.3    18  ARG18       0.0489
     30  CD         6.2260   41.8170    4.5820 C.3    18  ARG18       0.2205
     31  NE         6.7800   41.0300    3.4690 N.pl3  18  ARG18      -0.0865
     32  CZ         8.0660   41.1630    3.1040 C.cat  18  ARG18       0.5346
     33  NH1        8.8440   42.0200    3.7620 N.pl3  18  ARG18       0.1354
     34  NH2        8.5040   40.4310    2.0800 N.pl3  18  ARG18       0.1354
     35  N          1.6940   42.9340    8.0830 N.am   19  LEU19      -0.1980
     36  CA         1.1560   43.3670    9.3690 C.3    19  LEU19       0.1596
     37  C         -0.0710   42.5440    9.7490 C.2    19  LEU19       0.2287
     38  O         -0.3360   42.3180   10.9330 O.2    19  LEU19      -0.2864
     39  CB         0.7820   44.8510    9.3180 C.3    19  LEU19       0.0297
     40  CG         0.2890   45.5080   10.5980 C.3    19  LEU19       0.0022
     41  CD1        1.4260   45.6830   11.5970 C.3    19  LEU19       0.0001
     42  CD2       -0.3570   46.8580   10.2940 C.3    19  LEU19       0.0001
     43  N          1.3050   38.7370   10.3780 N.3    22  ALA22      -0.1231
     44  CA         1.9800   38.5730   11.6620 C.3    22  ALA22       0.1694
     45  C          0.9950   38.7310   12.8190 C.2    22  ALA22       0.2592
     46  O          1.3270   38.4440   13.9710 O.2    22  ALA22      -0.2718
     47  CB         3.1130   39.5800   11.7910 C.3    22  ALA22       0.0304
     48  N         -0.1920   39.2440   12.5120 N.am   23  HIS23      -0.1976
     49  CA        -1.2350   39.4420   13.5080 C.3    23  HIS23       0.1656
     50  C         -2.1410   38.2150   13.5800 C.2    23  HIS23       0.2291
     51  O         -2.8590   38.0190   14.5640 O.2    23  HIS23      -0.2864
     52  CB        -2.0660   40.6800   13.1680 C.3    23  HIS23       0.0771
     53  CG        -3.0610   41.0820   14.2410 C.ar   23  HIS23       0.0820
     54  ND1       -2.9150   42.0520   15.1350 N.ar   23  HIS23      -0.2267
     55  CD2       -4.3290   40.5850   14.3800 C.ar   23  HIS23       0.1154
     56  CE1       -4.0370   42.1860   15.7980 C.ar   23  HIS23       0.1986
     57  NE2       -4.8710   41.3030   15.3320 N.ar   23  HIS23      -0.2212
     58  N         -0.9050   34.8800   12.4380 N.3    25  MET25      -0.1230
     59  CA        -0.0290   33.7680   12.7940 C.3    25  MET25       0.1702
     60  C          0.3830   33.8260   14.2630 C.2    25  MET25       0.2592
     61  O          0.7950   32.8190   14.8420 O.2    25  MET25      -0.2718
     62  CB         1.2190   33.7720   11.9080 C.3    25  MET25       0.0401
     63  CG         2.2480   32.7200   12.2250 C.3    25  MET25       0.0596
     64  SD         3.4460   32.5570   10.8740 S.3    25  MET25      -0.1393
     65  CE         4.4000   33.9710   11.0770 C.3    25  MET25       0.0692
     66  N          0.3310   35.0230   14.8420 N.am   26  HIS26      -0.1962
     67  CA         0.6830   35.2160   16.2430 C.3    26  HIS26       0.1787
     68  C         -0.5640   35.1270   17.1190 C.2    26  HIS26       0.2620
     69  O         -0.4700   35.0420   18.3460 O.2    26  HIS26      -0.2715
     70  CB         1.3660   36.5690   16.4400 C.3    26  HIS26       0.0785
     71  CG         2.0970   36.6890   17.7350 C.ar   26  HIS26       0.0821
     72  ND1        3.4130   36.3240   17.8850 N.ar   26  HIS26      -0.2267
     73  CD2        1.7030   37.1750   18.9320 C.ar   26  HIS26       0.1154
     74  CE1        3.8190   36.6120   19.1080 C.ar   26  HIS26       0.1986
     75  NE2        2.7990   37.1340   19.7640 N.ar   26  HIS26      -0.2212
     76  N         -1.7280   35.2110   16.4810 N.am   27  THR27      -0.1951
     77  CA        -3.0080   35.1270   17.1760 C.3    27  THR27       0.1897
     78  C         -3.3880   33.6630   17.3560 C.2    27  THR27       0.2313
     79  O         -4.0630   33.2990   18.3220 O.2    27  THR27      -0.2863
     80  CB        -4.1200   35.8210   16.3750 C.3    27  THR27       0.1794
     81  OG1       -3.7980   37.2070   16.5070 O.3    27  THR27      -0.2208
     82  CG2       -5.5050   35.5980   17.0060 C.3    27  THR27       0.0378
     83  N         -0.7900   32.0660   19.9900 N.3    30  VAL30      -0.1245
     84  CA        -1.0490   32.4010   21.3850 C.3    30  VAL30       0.1561
     85  C         -2.2410   31.5960   21.8880 C.2    30  VAL30       0.2260
     86  O         -2.4830   31.5070   23.0930 O.2    30  VAL30      -0.2867
     87  CB        -1.3570   33.9000   21.5480 C.3    30  VAL30       0.0252
     88  CG1       -1.9340   34.1840   22.9470 C.3    30  VAL30       0.0019
     89  CG2       -0.1010   34.7270   21.3030 C.3    30  VAL30       0.0019
     90  N        -10.2400   51.2060   12.1140 N.3   133  PHE133     -0.1241
     91  CA       -10.5920   50.9090   13.4970 C.3   133  PHE133      0.1605
     92  C        -12.1080   50.8570   13.6870 C.2   133  PHE133      0.2264
     93  O        -12.5990   50.1820   14.5910 O.2   133  PHE133     -0.2867
     94  CB        -9.9880   51.9570   14.4340 C.3   133  PHE133      0.0534
     95  CG        -8.5660   51.8080   14.8890 C.ar  133  PHE133     -0.0203
     96  CD1       -7.8280   50.8430   14.3590 C.ar  133  PHE133     -0.0042
     97  CD2       -7.9890   52.6910   15.7620 C.ar  133  PHE133     -0.0042
     98  CE1       -6.4690   50.6580   14.7390 C.ar  133  PHE133     -0.0003
     99  CE2       -6.6200   52.5390   16.1040 C.ar  133  PHE133     -0.0003
    100  CZ        -5.9060   51.5190   15.6220 C.ar  133  PHE133     -0.0000
    101  N          1.7490   55.1950   11.8710 N.3   221  ILE221     -0.1231
    102  CA         0.9490   54.1300   12.4650 C.3   221  ILE221      0.1692
    103  C          1.3330   53.8630   13.9200 C.2   221  ILE221      0.2591
    104  O          0.7160   53.0300   14.5860 O.2   221  ILE221     -0.2718
    105  CB         1.0860   52.8190   11.6650 C.3   221  ILE221      0.0266
    106  CG1        0.6980   53.0380   10.2090 C.3   221  ILE221      0.0019
    107  CG2        0.2390   51.7260   12.3090 C.3   221  ILE221      0.0020
    108  CD1        1.0770   51.7920    9.3950 C.3   221  ILE221      0.0001
    109  N          2.3640   54.5530   14.4010 N.am  222  GLU222     -0.1979
    110  CA         2.8280   54.3910   15.7760 C.3   222  GLU222      0.1602
    111  C          1.8700   55.0220   16.7830 C.2   222  GLU222      0.2287
    112  O          1.7450   54.5480   17.9140 O.2   222  GLU222     -0.2864
    113  CB         4.2240   54.9960   15.9410 C.3   222  GLU222      0.0415
    114  CG         5.2810   54.3340   15.0930 C.3   222  GLU222      0.1163
    115  CD         5.5900   52.9160   15.4520 C.2   222  GLU222      0.3649
    116  OE1        5.2280   52.4450   16.5610 O.co2 222  GLU222     -0.2457
    117  OE2        6.3060   52.3050   14.6440 O.co2 222  GLU222     -0.2457
    118  N         -1.3720   55.1840   16.5150 N.3   224  VAL224     -0.1231
    119  CA        -2.5260   54.3010   16.6400 C.3   224  VAL224      0.1692
    120  C         -2.1760   53.0780   17.4840 C.2   224  VAL224      0.2591
    121  O         -3.0190   52.5570   18.2180 O.2   224  VAL224     -0.2718
    122  CB        -3.0170   53.8280   15.2580 C.3   224  VAL224      0.0266
    123  CG1       -3.3910   55.0120   14.3680 C.3   224  VAL224      0.0020
    124  CG2       -1.9860   52.9390   14.5810 C.3   224  VAL224      0.0020
    125  N         -0.9350   52.6170   17.3550 N.am  225  LEU225     -0.1980
    126  CA        -0.4520   51.4580   18.0990 C.3   225  LEU225      0.1596
    127  C         -0.3380   51.7600   19.5900 C.2   225  LEU225      0.2287
    128  O         -0.5520   50.8800   20.4270 O.2   225  LEU225     -0.2864
    129  CB         0.9060   51.0100   17.5540 C.3   225  LEU225      0.0297
    130  CG         1.3690   49.6280   18.0010 C.3   225  LEU225      0.0022
    131  CD1        0.6430   48.5690   17.2480 C.3   225  LEU225      0.0001
    132  CD2        2.8670   49.4050   17.7780 C.3   225  LEU225      0.0001
    133  N         -3.3670   51.2270   21.8030 N.3   228  SER228     -0.1217
    134  CA        -3.6780   49.8610   22.2050 C.3   228  SER228      0.1889
    135  C         -2.9080   49.4720   23.4630 C.2   228  SER228      0.2288
    136  O         -3.2780   48.5240   24.1580 O.2   228  SER228     -0.2866
    137  CB        -3.3420   48.8890   21.0740 C.3   228  SER228      0.2089
    138  OG        -3.5560   47.6020   21.3760 O.3   228  SER228     -0.2183
@<TRIPOS>BOND
     1    34    32    1
     2    32    31    2
     3    32    33    1
     4    31    30    1
     5    30    29    1
     6    29    28    1
     7    24    25    1
     8    28    25    1
     9    25    26    1
    10    11    10    2
    11    18    19    2
    12    18    17    1
    13     7     5    1
    14    26    35   am
    15    26    27    2
    16    35    36    1
    17    22    20    1
    18    10     9    1
    19    10    16   am
    20    20    17    1
    21    20    21    1
    22     9     8    1
    23     9    12    1
    24    17    16    1
    25     8     3   am
    26    39    36    1
    27    39    40    1
    28    36    37    1
    29     5     2    1
    30     5     6    1
    31   108   106    1
    32    21    23    1
    33    15    13    1
    34     3     2    1
    35     3     4    2
    36     2     1    1
    37    37    38    2
    38    12    13    1
    39   106   105    1
    40    42    40    1
    41    43    44    1
    42    13    14    1
    43    40    41    1
    44    64    65    1
    45    64    63    1
    46    44    47    1
    47    44    45    1
    48   105   107    1
    49   105   102    1
    50   101   102    1
    51    62    63    1
    52    62    59    1
    53    90    91    1
    54    58    59    1
    55   102   103    1
    56    48    45   am
    57    48    49    1
    58    59    60    1
    59    45    46    2
    60    52    49    1
    61    52    53    1
    62    91    92    1
    63    91    94    1
    64    49    50    1
    65    50    51    2
    66    92    93    2
    67   103   109   am
    68   103   104    2
    69    53    55   ar
    70    53    54   ar
    71    60    66   am
    72    60    61    2
    73    96    98   ar
    74    96    95   ar
    75   123   122    1
    76    55    57   ar
    77   109   110    1
    78    94    95    1
    79   124   122    1
    80   117   115   ar
    81    98   100   ar
    82    66    67    1
    83    95    97   ar
    84   114   115    1
    85   114   113    1
    86    54    56   ar
    87   122   119    1
    88    57    56   ar
    89   115   116   ar
    90   100    99   ar
    91    97    99   ar
    92   110   113    1
    93   110   111    1
    94    67    70    1
    95    67    68    1
    96    80    81    1
    97    80    82    1
    98    80    77    1
    99    70    71    1
   100    76    68   am
   101    76    77    1
   102   118   119    1
   103   119   120    1
   104   111   112    2
   105    68    69    2
   106    77    78    1
   107   131   130    1
   108   125   120   am
   109   125   126    1
   110    78    79    2
   111   120   121    2
   112   129   130    1
   113   129   126    1
   114    71    72   ar
   115    71    73   ar
   116   132   130    1
   117    72    74   ar
   118   126   127    1
   119    73    75   ar
   120    74    75   ar
   121   127   128    2
   122    83    84    1
   123   137   138    1
   124   137   134    1
   125    89    87    1
   126    84    87    1
   127    84    85    1
   128    87    88    1
   129   133   134    1
   130    85    86    2
   131   134   135    1
   132   135   136    2
