@<TRIPOS>MOLECULE
tmp/1izlB03.pdb
 109 104 0 0 0
SMALL
GASTEIGER

@<TRIPOS>ATOM
      1  N         -0.1920   39.2440   12.5120 N.3    23  HIS23      -0.1241
      2  CA        -1.2350   39.4420   13.5080 C.3    23  HIS23       0.1621
      3  C         -2.1410   38.2150   13.5800 C.2    23  HIS23       0.2264
      4  O         -2.8590   38.0190   14.5640 O.2    23  HIS23      -0.2867
      5  CB        -2.0660   40.6800   13.1680 C.3    23  HIS23       0.0745
      6  CG        -3.0610   41.0820   14.2410 C.ar   23  HIS23       0.0817
      7  ND1       -2.9150   42.0520   15.1350 N.ar   23  HIS23      -0.2268
      8  CD2       -4.3290   40.5850   14.3800 C.ar   23  HIS23       0.1154
      9  CE1       -4.0370   42.1860   15.7980 C.ar   23  HIS23       0.1986
     10  NE2       -4.8710   41.3030   15.3320 N.ar   23  HIS23      -0.2212
     11  N         -6.1230   54.9030    9.3050 N.3   130  PRO130     -0.2116
     12  CA        -6.5590   54.6860   10.6890 C.3   130  PRO130      0.1372
     13  C         -8.0770   54.5350   10.8030 C.2   130  PRO130      0.2244
     14  O         -8.6090   54.3370   11.8970 O.2   130  PRO130     -0.2868
     15  CB        -6.0750   55.9500   11.3920 C.3   130  PRO130      0.0268
     16  CG        -6.2290   56.9900   10.3230 C.3   130  PRO130      0.0207
     17  CD        -5.6340   56.2830    9.1250 C.3   130  PRO130      0.0892
     18  N         -9.6670   52.1950    9.7330 N.3   132  MET132     -0.1230
     19  CA        -9.9300   50.7580    9.7500 C.3   132  MET132      0.1702
     20  C        -10.3260   50.2940   11.1490 C.2   132  MET132      0.2592
     21  O        -10.6620   49.1250   11.3520 O.2   132  MET132     -0.2718
     22  CB        -8.6950   49.9880    9.2750 C.3   132  MET132      0.0401
     23  CG        -8.4240   50.3920    7.8210 C.3   132  MET132      0.0596
     24  SD        -7.2910   49.3050    7.0540 S.3   132  MET132     -0.1393
     25  CE        -7.9430   47.6830    7.1390 C.3   132  MET132      0.0692
     26  N        -10.2400   51.2060   12.1140 N.am  133  PHE133     -0.1976
     27  CA       -10.5920   50.9090   13.4970 C.3   133  PHE133      0.1639
     28  C        -12.1080   50.8570   13.6870 C.2   133  PHE133      0.2290
     29  O        -12.5990   50.1820   14.5910 O.2   133  PHE133     -0.2864
     30  CB        -9.9880   51.9570   14.4340 C.3   133  PHE133      0.0560
     31  CG        -8.5660   51.8080   14.8890 C.ar  133  PHE133     -0.0200
     32  CD1       -7.8280   50.8430   14.3590 C.ar  133  PHE133     -0.0042
     33  CD2       -7.9890   52.6910   15.7620 C.ar  133  PHE133     -0.0042
     34  CE1       -6.4690   50.6580   14.7390 C.ar  133  PHE133     -0.0003
     35  CE2       -6.6200   52.5390   16.1040 C.ar  133  PHE133     -0.0003
     36  CZ        -5.9060   51.5190   15.6220 C.ar  133  PHE133     -0.0000
     37  N        -13.5650   47.5990   12.7080 N.3   136  HIS136     -0.1226
     38  CA       -13.1170   46.6080   13.6770 C.3   136  HIS136      0.1752
     39  C        -13.8970   46.7380   14.9840 C.2   136  HIS136      0.2595
     40  O        -13.9420   45.8000   15.7830 O.2   136  HIS136     -0.2718
     41  CB       -11.6210   46.7720   13.9470 C.3   136  HIS136      0.0759
     42  CG       -10.9850   45.6250   14.7090 C.ar  136  HIS136      0.0818
     43  ND1      -11.0150   44.3500   14.2580 N.ar  136  HIS136     -0.2268
     44  CD2      -10.3420   45.5550   15.9060 C.ar  136  HIS136      0.1154
     45  CE1      -10.3600   43.5820   15.1220 C.ar  136  HIS136      0.1986
     46  NE2       -9.9220   44.2650   16.1150 N.ar  136  HIS136     -0.2212
     47  N        -14.4640   47.9200   15.2130 N.am  137  LEU137     -0.1980
     48  CA       -15.2450   48.1930   16.4150 C.3   137  LEU137      0.1596
     49  C        -16.6800   47.7030   16.2500 C.2   137  LEU137      0.2287
     50  O        -17.2550   47.1280   17.1750 O.2   137  LEU137     -0.2864
     51  CB       -15.2420   49.6920   16.7230 C.3   137  LEU137      0.0297
     52  CG       -14.1750   50.2420   17.6450 C.3   137  LEU137      0.0022
     53  CD1      -14.5260   51.7350   17.7780 C.3   137  LEU137      0.0001
     54  CD2      -14.2880   49.5600   18.9980 C.3   137  LEU137      0.0001
     55  N        -16.7830   44.0600   16.5750 N.3   140  ALA140     -0.1245
     56  CA       -16.6320   43.6130   17.9540 C.3   140  ALA140      0.1562
     57  C        -17.9400   43.8100   18.7170 C.2   140  ALA140      0.2260
     58  O        -18.1740   43.1590   19.7380 O.2   140  ALA140     -0.2867
     59  CB       -15.5040   44.3760   18.6330 C.3   140  ALA140      0.0290
     60  N        -18.3420   55.6070   14.1150 N.3   203  HIS203     -0.1241
     61  CA       -16.9050   55.7020   13.8870 C.3   203  HIS203      0.1621
     62  C        -16.5370   55.2560   12.4750 C.2   203  HIS203      0.2264
     63  O        -15.5150   55.6780   11.9290 O.2   203  HIS203     -0.2867
     64  CB       -16.1510   54.8480   14.9110 C.3   203  HIS203      0.0745
     65  CG       -14.6550   55.0920   14.9610 C.ar  203  HIS203      0.0817
     66  ND1      -14.1270   56.3100   15.2210 N.ar  203  HIS203     -0.2268
     67  CD2      -13.5800   54.2870   14.7440 C.ar  203  HIS203      0.1154
     68  CE1      -12.8020   56.2040   15.2210 C.ar  203  HIS203      0.1986
     69  NE2      -12.4300   55.0050   14.9600 N.ar  203  HIS203     -0.2212
     70  N         -2.8610   60.7630   14.2810 N.3   217  ARG217     -0.1245
     71  CA        -2.6000   59.4710   13.6500 C.3   217  ARG217      0.1563
     72  C         -2.9850   59.5120   12.1720 C.2   217  ARG217      0.2260
     73  O         -3.6180   58.5900   11.6520 O.2   217  ARG217     -0.2867
     74  CB        -3.3710   58.3630   14.3730 C.3   217  ARG217      0.0307
     75  CG        -4.8920   58.4560   14.3210 C.3   217  ARG217      0.0489
     76  CD        -5.5670   57.2610   15.0240 C.3   217  ARG217      0.2205
     77  NE        -7.0180   57.4040   14.9990 N.pl3 217  ARG217     -0.0865
     78  CZ        -7.7180   58.0640   15.9150 C.cat 217  ARG217      0.5346
     79  NH1       -7.1020   58.5930   16.9710 N.pl3 217  ARG217      0.1354
     80  NH2       -9.0390   58.1600   15.7910 N.pl3 217  ARG217      0.1354
     81  N         -1.3720   55.1840   16.5150 N.3   224  VAL224     -0.1245
     82  CA        -2.5260   54.3010   16.6400 C.3   224  VAL224      0.1561
     83  C         -2.1760   53.0780   17.4840 C.2   224  VAL224      0.2260
     84  O         -3.0190   52.5570   18.2180 O.2   224  VAL224     -0.2867
     85  CB        -3.0170   53.8280   15.2580 C.3   224  VAL224      0.0252
     86  CG1       -3.3910   55.0120   14.3680 C.3   224  VAL224      0.0019
     87  CG2       -1.9860   52.9390   14.5810 C.3   224  VAL224      0.0019
     88  N         -2.2610   53.5390   21.1870 N.3   227  SER227     -0.1202
     89  CA        -3.6190   53.6340   21.7100 C.3   227  SER227      0.2020
     90  C         -4.0820   52.2700   22.2120 C.2   227  SER227      0.2619
     91  O         -5.0880   52.1640   22.9170 O.2   227  SER227     -0.2717
     92  CB        -4.5700   54.1410   20.6250 C.3   227  SER227      0.2103
     93  OG        -4.2820   55.4560   20.3050 O.3   227  SER227     -0.2182
     94  N         -3.3670   51.2270   21.8030 N.am  228  SER228     -0.1951
     95  CA        -3.6780   49.8610   22.2050 C.3   228  SER228      0.1924
     96  C         -2.9080   49.4720   23.4630 C.2   228  SER228      0.2314
     97  O         -3.2780   48.5240   24.1580 O.2   228  SER228     -0.2863
     98  CB        -3.3420   48.8890   21.0740 C.3   228  SER228      0.2116
     99  OG        -3.5560   47.6020   21.3760 O.3   228  SER228     -0.2180
    100  N         -2.2590   51.6690   25.9740 N.3   230  ALA230     -0.1231
    101  CA        -2.9270   52.3480   27.0790 C.3   230  ALA230      0.1694
    102  C         -4.2080   51.6130   27.4660 C.2   230  ALA230      0.2591
    103  O         -4.7540   51.8270   28.5510 O.2   230  ALA230     -0.2718
    104  CB        -3.2390   53.7870   26.6970 C.3   230  ALA230      0.0304
    105  N         -4.7100   50.7940   26.5470 N.am  231  ALA231     -0.1980
    106  CA        -5.9230   50.0160   26.7750 C.3   231  ALA231      0.1597
    107  C         -5.6010   48.7000   27.4760 C.2   231  ALA231      0.2287
    108  O         -6.4980   48.0140   27.9720 O.2   231  ALA231     -0.2864
    109  CB        -6.6320   49.7520   25.4550 C.3   231  ALA231      0.0319
@<TRIPOS>BOND
     1    24    25    1
     2    24    23    1
     3    23    22    1
     4    17    11    1
     5    17    16    1
     6    22    19    1
     7    11    12    1
     8    18    19    1
     9    19    20    1
    10    16    15    1
    11    12    13    1
    12    12    15    1
    13    13    14    2
    14    20    21    2
    15    20    26   am
    16    73    72    2
    17    63    62    2
    18    26    27    1
    19    72    71    1
    20    62    61    1
    21     1     2    1
    22    37    38    1
    23     5     2    1
    24     5     6    1
    25    27    28    1
    26    27    30    1
    27     2     3    1
    28     3     4    2
    29    71    70    1
    30    71    74    1
    31    38    41    1
    32    38    39    1
    33    28    29    2
    34    61    60    1
    35    61    64    1
    36    41    42    1
    37     6     8   ar
    38     6     7   ar
    39    43    42   ar
    40    43    45   ar
    41    75    74    1
    42    75    76    1
    43    32    34   ar
    44    32    31   ar
    45    86    85    1
    46     8    10   ar
    47    30    31    1
    48    87    85    1
    49    42    44   ar
    50    34    36   ar
    51    67    69   ar
    52    67    65   ar
    53    31    33   ar
    54    64    65    1
    55    69    68   ar
    56    65    66   ar
    57    39    47   am
    58    39    40    2
    59    77    76    1
    60    77    78    2
    61    45    46   ar
    62     7     9   ar
    63    47    48    1
    64    68    66   ar
    65    85    82    1
    66    10     9   ar
    67    36    35   ar
    68    33    35   ar
    69    80    78    1
    70    44    46   ar
    71    78    79    1
    72    49    48    1
    73    49    50    2
    74    48    51    1
    75    81    82    1
    76    55    56    1
    77    82    83    1
    78    51    52    1
    79    83    84    2
    80    52    53    1
    81    52    54    1
    82    56    59    1
    83    56    57    1
    84    57    58    2
    85    93    92    1
    86    92    89    1
    87    98    99    1
    88    98    95    1
    89    88    89    1
    90    89    90    1
    91    94    95    1
    92    94    90   am
    93    95    96    1
    94    90    91    2
    95    96    97    2
    96   109   106    1
    97   100   101    1
    98   105   106    1
    99   105   102   am
   100   104   101    1
   101   106   107    1
   102   101   102    1
   103   102   103    2
   104   107   108    2
