@<TRIPOS>MOLECULE
tmp/1izlC03.pdb
 99 95 0 0 0
SMALL
GASTEIGER

@<TRIPOS>ATOM
      1  N         63.3300   69.0630   63.9630 N.3   111  LEU111     -0.1245
      2  CA        63.6350   67.7380   64.4850 C.3   111  LEU111      0.1561
      3  C         64.3070   67.9000   65.8430 C.2   111  LEU111      0.2260
      4  O         64.0760   67.1130   66.7600 O.2   111  LEU111     -0.2867
      5  CB        64.5620   66.9860   63.5270 C.3   111  LEU111      0.0270
      6  CG        63.9470   66.5300   62.2040 C.3   111  LEU111      0.0019
      7  CD1       65.0390   65.9420   61.3410 C.3   111  LEU111      0.0001
      8  CD2       62.8690   65.4970   62.4080 C.3   111  LEU111      0.0001
      9  N         68.6040   60.7130   69.4110 N.3   174  ILE174     -0.1231
     10  CA        69.2860   60.1670   68.2450 C.3   174  ILE174      0.1692
     11  C         68.6560   60.7090   66.9640 C.2   174  ILE174      0.2592
     12  O         69.2310   60.5940   65.8780 O.2   174  ILE174     -0.2718
     13  CB        69.2170   58.6290   68.2170 C.3   174  ILE174      0.0266
     14  CG1       70.2820   58.0450   67.2860 C.3   174  ILE174      0.0019
     15  CG2       67.7850   58.1340   68.0010 C.3   174  ILE174      0.0020
     16  CD1       70.5410   56.5950   67.5170 C.3   174  ILE174      0.0001
     17  N         67.4530   61.2570   67.0960 N.am  175  CYS175     -0.1970
     18  CA        66.7220   61.8240   65.9700 C.3   175  CYS175      0.1712
     19  C         66.9600   63.3260   65.8620 C.2   175  CYS175      0.2296
     20  O         66.8980   63.8950   64.7710 O.2   175  CYS175     -0.2864
     21  CB        65.2250   61.5510   66.1210 C.3   175  CYS175      0.0983
     22  SG        64.1730   62.2080   64.8400 S.3   175  CYS175     -0.0798
     23  N         70.7800   63.5670   64.9960 N.3   178  GLY178     -0.1210
     24  CA        70.9870   63.0090   63.6720 C.3   178  GLY178      0.1956
     25  C         70.2650   63.7950   62.5940 C.2   178  GLY178      0.2612
     26  O         70.5680   63.6540   61.4060 O.2   178  GLY178     -0.2717
     27  N         69.2800   64.5880   63.0060 N.am  179  GLY179     -0.1956
     28  CA        68.5200   65.3940   62.0690 C.3   179  GLY179      0.1869
     29  C         69.2220   66.6940   61.7260 C.2   179  GLY179      0.2309
     30  O         69.2520   67.1030   60.5650 O.2   179  GLY179     -0.2863
     31  N         72.1500   65.9930   59.4470 N.3   182  HIS182     -0.1241
     32  CA        71.8130   65.5710   58.0920 C.3   182  HIS182      0.1621
     33  C         71.6440   66.7520   57.1370 C.2   182  HIS182      0.2264
     34  O         71.5810   66.5680   55.9190 O.2   182  HIS182     -0.2867
     35  CB        70.5340   64.7310   58.1050 C.3   182  HIS182      0.0745
     36  CG        70.1950   64.0850   56.7740 C.ar  182  HIS182      0.0817
     37  ND1       70.4130   62.8230   56.4260 N.ar  182  HIS182     -0.2268
     38  CD2       69.4900   64.6740   55.7580 C.ar  182  HIS182      0.1154
     39  CE1       69.8590   62.6060   55.2580 C.ar  182  HIS182      0.1986
     40  NE2       69.3120   63.7230   54.8750 N.ar  182  HIS182     -0.2212
     41  N         73.2020   59.5210   45.8640 N.3   184  ALA184     -0.1231
     42  CA        72.5210   60.1550   44.6970 C.3   184  ALA184      0.1694
     43  C         71.4220   61.1170   45.1410 C.2   184  ALA184      0.2591
     44  O         70.8020   60.9300   46.1890 O.2   184  ALA184     -0.2718
     45  CB        71.9450   59.0850   43.7800 C.3   184  ALA184      0.0304
     46  N         71.2060   62.1590   44.3440 N.am  185  ARG185     -0.1980
     47  CA        70.1850   63.1600   44.6370 C.3   185  ARG185      0.1597
     48  C         68.8510   62.8230   43.9720 C.2   185  ARG185      0.2287
     49  O         67.9620   63.6710   43.8870 O.2   185  ARG185     -0.2864
     50  CB        70.6590   64.5440   44.1850 C.3   185  ARG185      0.0334
     51  CG        72.1020   64.8750   44.5740 C.3   185  ARG185      0.0492
     52  CD        72.2710   64.6950   46.0750 C.3   185  ARG185      0.2205
     53  NE        71.5650   65.7770   46.7700 N.pl3 185  ARG185     -0.0865
     54  CZ        71.6230   66.0400   48.0600 C.cat 185  ARG185      0.5346
     55  NH1       72.3700   65.2770   48.8700 N.pl3 185  ARG185      0.1354
     56  NH2       70.9550   67.0560   48.6290 N.pl3 185  ARG185      0.1354
     57  N         65.9350   60.9840   44.6430 N.3   187  ALA187     -0.1245
     58  CA        65.0500   60.3230   45.6000 C.3   187  ALA187      0.1562
     59  C         63.6900   61.0060   45.5920 C.2   187  ALA187      0.2260
     60  O         63.3390   61.7280   46.5280 O.2   187  ALA187     -0.2867
     61  CB        65.6680   60.3640   46.9960 C.3   187  ALA187      0.0290
     62  N         61.4650   66.2450   45.1470 N.3   190  TRP190     -0.1241
     63  CA        61.5100   67.1100   46.3230 C.3   190  TRP190      0.1605
     64  C         60.7200   68.3840   46.0400 C.2   190  TRP190      0.2264
     65  O         60.9790   69.0770   45.0540 O.2   190  TRP190     -0.2867
     66  CB        62.9590   67.4640   46.6740 C.3   190  TRP190      0.0550
     67  CG        63.7710   66.3080   47.1830 C.ar  190  TRP190      0.0003
     68  CD1       64.7470   65.6280   46.5070 C.ar  190  TRP190      0.0946
     69  CD2       63.6980   65.7140   48.4850 C.ar  190  TRP190      0.0152
     70  NE1       65.2880   64.6520   47.3100 N.ar  190  TRP190     -0.2442
     71  CE2       64.6630   64.6810   48.5280 C.ar  190  TRP190      0.0810
     72  CE3       62.9140   65.9540   49.6210 C.ar  190  TRP190      0.0012
     73  CZ2       64.8630   63.8890   49.6650 C.ar  190  TRP190      0.0191
     74  CZ3       63.1130   65.1640   50.7510 C.ar  190  TRP190      0.0001
     75  CH2       64.0810   64.1460   50.7620 C.ar  190  TRP190      0.0015
     76  N         56.4870   67.0720   50.4780 N.3   195  TYR195     -0.1241
     77  CA        56.9180   67.0300   51.8710 C.3   195  TYR195      0.1605
     78  C         55.7270   67.1880   52.8130 C.2   195  TYR195      0.2264
     79  O         55.8000   66.8180   53.9870 O.2   195  TYR195     -0.2867
     80  CB        57.9450   68.1330   52.1400 C.3   195  TYR195      0.0534
     81  CG        58.4920   68.1530   53.5420 C.ar  195  TYR195     -0.0201
     82  CD1       59.2110   67.0950   54.0450 C.ar  195  TYR195     -0.0009
     83  CD2       58.2790   69.2100   54.3660 C.ar  195  TYR195     -0.0009
     84  CE1       59.7180   67.0820   55.3350 C.ar  195  TYR195      0.0417
     85  CE2       58.7700   69.2100   55.6740 C.ar  195  TYR195      0.0417
     86  CZ        59.5140   68.1860   56.1200 C.ar  195  TYR195      0.1957
     87  OH        59.9850   68.2160   57.4330 O.3   195  TYR195     -0.2866
     88  N         53.7800   63.5910   52.7230 N.3   198  TYR198     -0.1241
     89  CA        54.5120   62.5620   53.4540 C.3   198  TYR198      0.1605
     90  C         54.4500   62.8540   54.9520 C.2   198  TYR198      0.2264
     91  O         54.5570   61.9440   55.7770 O.2   198  TYR198     -0.2867
     92  CB        55.9720   62.5080   52.9870 C.3   198  TYR198      0.0534
     93  CG        56.7900   61.3960   53.6160 C.ar  198  TYR198     -0.0201
     94  CD1       56.5740   60.0610   53.2710 C.ar  198  TYR198     -0.0009
     95  CD2       57.7880   61.6800   54.5500 C.ar  198  TYR198     -0.0009
     96  CE1       57.3320   59.0360   53.8400 C.ar  198  TYR198      0.0417
     97  CE2       58.5510   60.6640   55.1230 C.ar  198  TYR198      0.0417
     98  CZ        58.3190   59.3460   54.7640 C.ar  198  TYR198      0.1957
     99  OH        59.0780   58.3410   55.3210 O.3   198  TYR198     -0.2866
@<TRIPOS>BOND
     1    45    42    1
     2    49    48    2
     3    48    47    1
     4    50    51    1
     5    50    47    1
     6    46    47    1
     7    46    43   am
     8    51    52    1
     9    57    58    1
    10    42    43    1
    11    42    41    1
    12    65    64    2
    13    43    44    2
    14    62    63    1
    15    59    58    1
    16    59    60    2
    17    58    61    1
    18    64    63    1
    19    52    53    1
    20    63    66    1
    21    68    67   ar
    22    68    70   ar
    23    66    67    1
    24    53    54    2
    25    67    69   ar
    26    70    71   ar
    27    54    56    1
    28    54    55    1
    29    69    71   ar
    30    69    72   ar
    31    71    73   ar
    32    72    74   ar
    33    73    75   ar
    34    76    77    1
    35    74    75   ar
    36    77    80    1
    37    77    78    1
    38    80    81    1
    39    88    89    1
    40    78    79    2
    41    92    89    1
    42    92    93    1
    43    94    93   ar
    44    94    96   ar
    45    89    90    1
    46    81    82   ar
    47    81    83   ar
    48    93    95   ar
    49    96    98   ar
    50    82    84   ar
    51    83    85   ar
    52    95    97   ar
    53    98    97   ar
    54    98    99    1
    55    40    39   ar
    56    40    38   ar
    57    90    91    2
    58    39    37   ar
    59    84    86   ar
    60    85    86   ar
    61    38    36   ar
    62    34    33    2
    63    86    87    1
    64    37    36   ar
    65    36    35    1
    66    33    32    1
    67    32    35    1
    68    32    31    1
    69    30    29    2
    70     7     6    1
    71    26    25    2
    72    29    28    1
    73    28    27    1
    74     6     8    1
    75     6     5    1
    76    25    27   am
    77    25    24    1
    78     5     2    1
    79    24    23    1
    80     1     2    1
    81     2     3    1
    82    20    19    2
    83    22    21    1
    84     3     4    2
    85    19    18    1
    86    12    11    2
    87    18    21    1
    88    18    17    1
    89    11    17   am
    90    11    10    1
    91    14    16    1
    92    14    13    1
    93    15    13    1
    94    13    10    1
    95    10     9    1
