@<TRIPOS>MOLECULE
tmp/1izlM00.pdb
 161 152 0 0 0
SMALL
GASTEIGER

@<TRIPOS>ATOM
      1  N         19.5280   58.3690   90.2220 N.3    32  PHE32      -0.1241
      2  CA        19.4730   56.9140   90.1010 C.3    32  PHE32       0.1605
      3  C         19.8550   56.4690   88.6880 C.2    32  PHE32       0.2264
      4  O         20.0940   55.2830   88.4450 O.2    32  PHE32      -0.2867
      5  CB        18.0670   56.4060   90.4530 C.3    32  PHE32       0.0534
      6  CG        17.9820   54.9110   90.6430 C.ar   32  PHE32      -0.0203
      7  CD1       18.6100   54.2990   91.7240 C.ar   32  PHE32      -0.0042
      8  CD2       17.2690   54.1180   89.7460 C.ar   32  PHE32      -0.0042
      9  CE1       18.5290   52.9200   91.9140 C.ar   32  PHE32      -0.0003
     10  CE2       17.1820   52.7360   89.9270 C.ar   32  PHE32      -0.0003
     11  CZ        17.8130   52.1380   91.0130 C.ar   32  PHE32      -0.0000
     12  N         24.3370   57.3800   88.4030 N.3    35  ALA35      -0.1231
     13  CA        25.2890   56.7020   89.2770 C.3    35  ALA35       0.1694
     14  C         24.7410   55.3740   89.8020 C.2    35  ALA35       0.2592
     15  O         25.2120   54.8540   90.8170 O.2    35  ALA35      -0.2718
     16  CB        25.6680   57.6140   90.4410 C.3    35  ALA35       0.0304
     17  N         23.7800   54.8040   89.0840 N.am   36  CYS36      -0.1970
     18  CA        23.1700   53.5370   89.4800 C.3    36  CYS36       0.1712
     19  C         22.6600   52.7560   88.2730 C.2    36  CYS36       0.2296
     20  O         22.5600   51.5260   88.3190 O.2    36  CYS36      -0.2864
     21  CB        22.0190   53.7910   90.4530 C.3    36  CYS36       0.0983
     22  SG        22.5560   54.4400   92.0630 S.3    36  CYS36      -0.0798
     23  N         24.2030   52.2870   85.7620 N.3    38  SER38      -0.1202
     24  CA        25.3670   51.6380   85.1710 C.3    38  SER38       0.2020
     25  C         25.2530   50.1240   85.3410 C.2    38  SER38       0.2619
     26  O         26.0110   49.3610   84.7400 O.2    38  SER38      -0.2717
     27  CB        26.6470   52.1370   85.8400 C.3    38  SER38       0.2103
     28  OG        26.6990   51.8670   87.2240 O.3    38  SER38      -0.2182
     29  N         24.3220   49.7030   86.1930 N.am   39  CYS39      -0.1955
     30  CA        24.0710   48.2920   86.4660 C.3    39  CYS39       0.1843
     31  C         22.5840   48.0690   86.7380 C.2    39  CYS39       0.2625
     32  O         22.1750   46.9950   87.1840 O.2    39  CYS39      -0.2714
     33  CB        24.8880   47.8330   87.6740 C.3    39  CYS39       0.0997
     34  SG        24.4800   48.6610   89.2300 S.3    39  CYS39      -0.0797
     35  N         21.7940   49.1100   86.4990 N.am   40  HIS40      -0.1973
     36  CA        20.3490   49.0700   86.6990 C.3    40  HIS40       0.1656
     37  C         19.6630   49.8350   85.5690 C.2    40  HIS40       0.2291
     38  O         18.8470   50.7260   85.8130 O.2    40  HIS40      -0.2864
     39  CB        19.9750   49.6990   88.0480 C.3    40  HIS40       0.0771
     40  CG        20.3680   48.8760   89.2360 C.ar   40  HIS40       0.0820
     41  ND1       19.7140   47.7110   89.5820 N.ar   40  HIS40      -0.2267
     42  CD2       21.3280   49.0580   90.1710 C.ar   40  HIS40       0.1154
     43  CE1       20.2540   47.2150   90.6790 C.ar   40  HIS40       0.1986
     44  NE2       21.2370   48.0130   91.0580 N.ar   40  HIS40      -0.2212
     45  N         18.6770   44.3160   86.0770 N.3    45  THR45      -0.1218
     46  CA        19.9720   44.0350   86.6850 C.3    45  THR45       0.1862
     47  C         20.9450   43.3650   85.7230 C.2    45  THR45       0.2287
     48  O         20.5780   42.4540   84.9780 O.2    45  THR45      -0.2866
     49  CB        19.8180   43.1470   87.9310 C.3    45  THR45       0.1770
     50  OG1       19.0830   41.9770   87.5950 O.3    45  THR45      -0.2211
     51  CG2       19.1190   43.8870   89.0570 C.3    45  THR45       0.0375
     52  N         24.1350   42.2880   86.9240 N.3    47  THR47      -0.1203
     53  CA        24.9160   41.3340   87.7060 C.3    47  THR47       0.1994
     54  C         24.0780   40.6520   88.7850 C.2    47  THR47       0.2617
     55  O         24.4350   40.6640   89.9660 O.2    47  THR47      -0.2717
     56  CB        26.1290   42.0160   88.3640 C.3    47  THR47       0.1784
     57  OG1       25.6540   43.0420   89.2210 O.3    47  THR47      -0.2211
     58  CG2       27.0910   42.5800   87.3360 C.3    47  THR47       0.0376
     59  N         22.9740   40.0410   88.3650 N.am   48  ASN48      -0.1974
     60  CA        22.0710   39.3440   89.2770 C.3    48  ASN48       0.1688
     61  C         21.1040   38.4580   88.5000 C.2    48  ASN48       0.2292
     62  O         20.7840   38.7340   87.3430 O.2    48  ASN48      -0.2864
     63  CB        21.2840   40.3500   90.1190 C.3    48  ASN48       0.1181
     64  CG        21.5790   40.1900   91.5950 C.2    48  ASN48       0.2629
     65  OD1       21.3710   39.1100   92.1600 O.2    48  ASN48      -0.2716
     66  ND2       22.0940   41.2450   92.2110 N.am   48  ASN48      -0.0877
     67  N         16.7960   40.1410   89.4930 N.3    51  LEU51      -0.1245
     68  CA        16.5680   40.8400   90.7530 C.3    51  LEU51       0.1561
     69  C         16.1920   42.3020   90.5180 C.2    51  LEU51       0.2260
     70  O         16.9260   43.2170   90.9010 O.2    51  LEU51      -0.2867
     71  CB        17.8160   40.7500   91.6390 C.3    51  LEU51       0.0270
     72  CG        17.7430   41.3410   93.0390 C.3    51  LEU51       0.0019
     73  CD1       16.8630   40.4910   93.9470 C.3    51  LEU51       0.0001
     74  CD2       19.1410   41.4770   93.6380 C.3    51  LEU51       0.0001
     75  N         13.7180   45.8060   90.7480 N.3    53  LEU53      -0.1245
     76  CA        13.2280   46.5690   91.8910 C.3    53  LEU53       0.1561
     77  C         11.7200   46.8110   91.8380 C.2    53  LEU53       0.2260
     78  O         11.2300   47.8300   92.3300 O.2    53  LEU53      -0.2867
     79  CB        13.9730   47.9040   91.9880 C.3    53  LEU53       0.0270
     80  CG        15.4860   47.8170   92.1480 C.3    53  LEU53       0.0019
     81  CD1       16.1370   49.1790   92.0300 C.3    53  LEU53       0.0001
     82  CD2       15.8790   47.1770   93.4660 C.3    53  LEU53       0.0001
     83  N         10.5520   43.8740   96.0940 N.3    58  LEU58      -0.1245
     84  CA        10.9040   44.5930   97.3170 C.3    58  LEU58       0.1561
     85  C         10.0420   44.1570   98.4980 C.2    58  LEU58       0.2260
     86  O         10.4970   44.1620   99.6400 O.2    58  LEU58      -0.2867
     87  CB        10.7590   46.1010   97.1040 C.3    58  LEU58       0.0270
     88  CG        11.6110   46.7060   95.9950 C.3    58  LEU58       0.0019
     89  CD1       11.2430   48.1520   95.7370 C.3    58  LEU58       0.0001
     90  CD2       13.0940   46.6040   96.3020 C.3    58  LEU58       0.0001
     91  N         11.0650   46.1120  101.9570 N.3    65  ARG65      -0.1245
     92  CA        11.5550   47.4480  101.6300 C.3    65  ARG65       0.1563
     93  C         10.6740   48.1250  100.5780 C.2    65  ARG65       0.2260
     94  O         11.1730   48.8320   99.6990 O.2    65  ARG65      -0.2867
     95  CB        13.0030   47.3700  101.1330 C.3    65  ARG65       0.0307
     96  CG        13.9930   46.9120  102.2090 C.3    65  ARG65       0.0489
     97  CD        15.3220   46.7300  101.5510 C.3    65  ARG65       0.2205
     98  NE        15.3440   45.4430  100.7830 N.pl3  65  ARG65      -0.0865
     99  CZ        16.4490   45.0480  100.1430 C.cat  65  ARG65       0.5346
    100  NH1       17.5730   45.7800  100.1330 N.pl3  65  ARG65       0.1354
    101  NH2       16.3730   43.8330   99.5190 N.pl3  65  ARG65       0.1354
    102  N         13.1810   51.3530  102.5150 N.3    71  LEU71      -0.1245
    103  CA        14.1190   51.2910  101.3970 C.3    71  LEU71       0.1561
    104  C         15.2730   52.2770  101.5740 C.2    71  LEU71       0.2260
    105  O         16.3900   52.0200  101.1220 O.2    71  LEU71      -0.2867
    106  CB        13.3900   51.5780  100.0820 C.3    71  LEU71       0.0270
    107  CG        13.9770   51.1140   98.7650 C.3    71  LEU71       0.0019
    108  CD1       14.0720   49.5960   98.6850 C.3    71  LEU71       0.0001
    109  CD2       13.1190   51.6470   97.6150 C.3    71  LEU71       0.0001
    110  N         17.9630   50.8650  103.7680 N.3    74  TYR74      -0.1227
    111  CA        18.6520   49.7840  103.0690 C.3    74  TYR74       0.1736
    112  C         19.7390   50.2940  102.1210 C.2    74  TYR74       0.2595
    113  O         20.6540   49.5470  101.7620 O.2    74  TYR74      -0.2718
    114  CB        17.6450   48.9370  102.2900 C.3    74  TYR74       0.0548
    115  CG        17.2910   47.7110  103.1010 C.ar   74  TYR74      -0.0200
    116  CD1       16.3680   47.7960  104.1190 C.ar   74  TYR74      -0.0009
    117  CD2       17.9140   46.5120  102.8140 C.ar   74  TYR74      -0.0009
    118  CE1       16.0590   46.6700  104.8600 C.ar   74  TYR74       0.0417
    119  CE2       17.6120   45.3820  103.5510 C.ar   74  TYR74       0.0417
    120  CZ        16.6840   45.4660  104.5700 C.ar   74  TYR74       0.1957
    121  OH        16.3670   44.3310  105.2970 O.3    74  TYR74      -0.2866
    122  N         19.6160   51.5470  101.6940 N.am   75  MET75      -0.1979
    123  CA        20.5870   52.1560  100.7870 C.3    75  MET75       0.1605
    124  C         21.9670   52.2350  101.4320 C.2    75  MET75       0.2287
    125  O         22.9590   51.7870  100.8510 O.2    75  MET75      -0.2864
    126  CB        20.1250   53.5560  100.3730 C.3    75  MET75       0.0413
    127  CG        18.8300   53.5590   99.6150 C.3    75  MET75       0.0598
    128  SD        18.9380   52.7760   97.9570 S.3    75  MET75      -0.1393
    129  CE        19.8260   53.9930   97.0450 C.3    75  MET75       0.0692
    130  N         22.3060   45.0070  101.8280 N.3    79  THR79      -0.1218
    131  CA        22.1180   43.6170  102.2210 C.3    79  THR79       0.1862
    132  C         22.4210   42.6530  101.0730 C.2    79  THR79       0.2287
    133  O         22.9640   43.0490  100.0370 O.2    79  THR79      -0.2866
    134  CB        20.6800   43.3680  102.7140 C.3    79  THR79       0.1770
    135  OG1       19.7550   43.8080  101.7290 O.3    79  THR79      -0.2211
    136  CG2       20.4110   44.0820  104.0260 C.3    79  THR79       0.0375
    137  N         28.6440   45.7080   97.4790 N.3    91  HIS91      -0.1227
    138  CA        27.8360   46.6890   96.7650 C.3    91  HIS91       0.1737
    139  C         28.0730   48.1020   97.2940 C.2    91  HIS91       0.2438
    140  O         28.3080   48.2990   98.4840 O.2    91  HIS91      -0.2733
    141  CB        26.3520   46.3270   96.8790 C.3    91  HIS91       0.0758
    142  CG        25.4480   47.2140   96.0800 C.ar   91  HIS91       0.0818
    143  ND1       24.6350   48.1620   96.6590 N.ar   91  HIS91      -0.2268
    144  CD2       25.2250   47.2920   94.7460 C.ar   91  HIS91       0.1154
    145  CE1       23.9480   48.7860   95.7190 C.ar   91  HIS91       0.1986
    146  NE2       24.2870   48.2770   94.5490 N.ar   91  HIS91      -0.2212
    147  N         28.0210   49.1040   96.4030 N.am   92  PRO92      -0.2729
    148  CA        28.2270   50.5090   96.7700 C.3    92  PRO92       0.1401
    149  C         27.0630   51.0430   97.6040 C.2    92  PRO92       0.2269
    150  O         25.9020   50.9300   97.2050 O.2    92  PRO92      -0.2865
    151  CB        28.3260   51.2420   95.4480 C.3    92  PRO92       0.0296
    152  CG        27.4520   50.4270   94.4880 C.3    92  PRO92       0.0237
    153  CD        27.7920   49.0090   94.9010 C.3    92  PRO92       0.0939
    154  N         12.0040   54.3980   92.4620 N.3   118  ILE118     -0.1245
    155  CA        11.8510   53.0150   92.0250 C.3   118  ILE118      0.1561
    156  C         10.4040   52.5480   92.1660 C.2   118  ILE118      0.2260
    157  O          9.8750   51.8680   91.2850 O.2   118  ILE118     -0.2867
    158  CB        12.7570   52.0720   92.8390 C.3   118  ILE118      0.0252
    159  CG1       14.2120   52.5120   92.7420 C.3   118  ILE118      0.0019
    160  CG2       12.5760   50.6350   92.3600 C.3   118  ILE118      0.0019
    161  CD1       15.0470   51.7110   93.7500 C.3   118  ILE118      0.0001
@<TRIPOS>BOND
     1    26    25    2
     2    48    47    2
     3    24    25    1
     4    24    23    1
     5    24    27    1
     6    25    29   am
     7    37    38    2
     8    37    36    1
     9    47    46    1
    10    27    28    1
    11    45    46    1
    12    29    30    1
    13    30    31    1
    14    30    33    1
    15    35    36    1
    16    35    31   am
    17    46    49    1
    18    36    39    1
    19    31    32    2
    20    52    53    1
    21    58    56    1
    22    62    61    2
    23    50    49    1
    24    33    34    1
    25    53    56    1
    26    53    54    1
    27    49    51    1
    28    39    40    1
    29    19    20    2
    30    19    18    1
    31    56    57    1
    32    59    54   am
    33    59    60    1
    34    12    13    1
    35     4     3    2
    36    61    60    1
    37     3     2    1
    38    54    55    2
    39    17    18    1
    40    17    14   am
    41    40    41   ar
    42    40    42   ar
    43    60    63    1
    44    13    14    1
    45    13    16    1
    46    18    21    1
    47    67    68    1
    48    41    43   ar
    49     8    10   ar
    50     8     6   ar
    51    14    15    2
    52    10    11   ar
    53     2     1    1
    54     2     5    1
    55    63    64    1
    56    42    44   ar
    57    21    22    1
    58     5     6    1
    59    69    68    1
    60    69    70    2
    61     6     7   ar
    62    43    44   ar
    63    75    76    1
    64    68    71    1
    65    11     9   ar
    66   157   156    2
    67    64    65    2
    68    64    66   am
    69    71    72    1
    70     7     9   ar
    71    77    76    1
    72    77    78    2
    73    76    79    1
    74    79    80    1
    75   155   156    1
    76   155   154    1
    77   155   158    1
    78    81    80    1
    79    80    82    1
    80   160   158    1
    81   159   158    1
    82   159   161    1
    83    72    74    1
    84    72    73    1
    85   152   153    1
    86   152   151    1
    87   146   144   ar
    88   146   145   ar
    89   144   142   ar
    90   153   147    1
    91   151   148    1
    92   145   143   ar
    93    89    88    1
    94    88    90    1
    95    88    87    1
    96   142   143   ar
    97   142   141    1
    98    83    84    1
    99   147   148    1
   100   147   139   am
   101   138   141    1
   102   138   139    1
   103   138   137    1
   104   148   149    1
   105   129   128    1
   106    87    84    1
   107   150   149    2
   108   139   140    2
   109    84    85    1
   110   109   107    1
   111   128   127    1
   112    85    86    2
   113   108   107    1
   114   107   106    1
   115   101    99    1
   116   127   126    1
   117    94    93    2
   118   133   132    2
   119   106   103    1
   120   100    99    1
   121    99    98    2
   122   126   123    1
   123    93    92    1
   124    98    97    1
   125   123   124    1
   126   123   122    1
   127   125   124    2
   128   132   131    1
   129   105   104    2
   130    95    92    1
   131    95    96    1
   132   103   104    1
   133   103   102    1
   134    97    96    1
   135    92    91    1
   136   122   112   am
   137   135   134    1
   138   113   112    2
   139   130   131    1
   140   112   111    1
   141   131   134    1
   142   114   111    1
   143   114   115    1
   144   134   136    1
   145   117   115   ar
   146   117   119   ar
   147   111   110    1
   148   115   116   ar
   149   119   120   ar
   150   116   118   ar
   151   120   118   ar
   152   120   121    1
