@<TRIPOS>MOLECULE
tmp/1izlB00.pdb
 95 92 0 0 0
SMALL
GASTEIGER

@<TRIPOS>ATOM
      1  N        -15.9960   37.9270   40.2130 N.3   180  TYR180     -0.1241
      2  CA       -17.2560   38.6460   40.0110 C.3   180  TYR180      0.1605
      3  C        -18.0210   38.8790   41.3110 C.2   180  TYR180      0.2264
      4  O        -18.7920   38.0290   41.7550 O.2   180  TYR180     -0.2867
      5  CB       -18.1480   37.9110   39.0030 C.3   180  TYR180      0.0534
      6  CG       -17.5380   37.7580   37.6280 C.ar  180  TYR180     -0.0201
      7  CD1      -17.1250   36.5110   37.1630 C.ar  180  TYR180     -0.0009
      8  CD2      -17.3850   38.8580   36.7870 C.ar  180  TYR180     -0.0009
      9  CE1      -16.5730   36.3620   35.8930 C.ar  180  TYR180      0.0417
     10  CE2      -16.8370   38.7230   35.5170 C.ar  180  TYR180      0.0417
     11  CZ       -16.4330   37.4740   35.0750 C.ar  180  TYR180      0.1957
     12  OH       -15.8980   37.3490   33.8150 O.3   180  TYR180     -0.2866
     13  N        -20.5140   41.2100   41.9980 N.3   182  PRO182     -0.2116
     14  CA       -21.9660   41.3510   41.8300 C.3   182  PRO182      0.1372
     15  C        -22.6310   40.0800   41.3120 C.2   182  PRO182      0.2244
     16  O        -22.0510   39.3510   40.5090 O.2   182  PRO182     -0.2868
     17  CB       -22.0820   42.4670   40.7880 C.3   182  PRO182      0.0268
     18  CG       -20.7930   43.2210   40.9220 C.3   182  PRO182      0.0207
     19  CD       -19.8080   42.1040   41.0660 C.3   182  PRO182      0.0892
     20  N        -25.7960   39.9060   39.6040 N.3   184  GLY184     -0.1210
     21  CA       -26.2820   40.1760   38.2630 C.3   184  GLY184      0.1956
     22  C        -25.2030   40.8130   37.4090 C.2   184  GLY184      0.2612
     23  O        -24.9860   42.0260   37.4770 O.2   184  GLY184     -0.2717
     24  N        -24.5280   39.9920   36.6110 N.am  185  VAL185     -0.1965
     25  CA       -23.4520   40.4620   35.7430 C.3   185  VAL185      0.1727
     26  C        -23.9570   41.1470   34.4730 C.2   185  VAL185      0.2616
     27  O        -24.2660   42.3390   34.4890 O.2   185  VAL185     -0.2715
     28  CB       -22.5030   39.3060   35.3580 C.3   185  VAL185      0.0290
     29  CG1      -21.2140   39.9430   34.8340 C.3   185  VAL185      0.0023
     30  CG2      -22.2060   38.5010   36.6230 C.3   185  VAL185      0.0023
     31  N        -24.0400   40.3860   33.3820 N.am  186  VAL186     -0.1963
     32  CA       -24.4940   40.9030   32.0920 C.3   186  VAL186      0.1727
     33  C        -23.6520   42.1040   31.6520 C.2   186  VAL186      0.2616
     34  O        -22.4320   41.9900   31.5090 O.2   186  VAL186     -0.2715
     35  CB       -25.9940   41.2860   32.1280 C.3   186  VAL186      0.0290
     36  CG1      -26.4620   41.3940   30.6750 C.3   186  VAL186      0.0023
     37  CG2      -26.7490   40.1590   32.8330 C.3   186  VAL186      0.0023
     38  N        -24.3090   43.2430   31.4360 N.am  187  ALA187     -0.1963
     39  CA       -23.6500   44.4810   31.0210 C.3   187  ALA187      0.1728
     40  C        -22.9880   44.4190   29.6440 C.2   187  ALA187      0.2616
     41  O        -22.5180   45.4370   29.1340 O.2   187  ALA187     -0.2715
     42  CB       -22.6450   44.9310   32.0800 C.3   187  ALA187      0.0334
     43  N        -22.9200   43.2260   29.0610 N.am  188  HIS188     -0.1973
     44  CA       -22.3240   43.0510   27.7380 C.3   188  HIS188      0.1656
     45  C        -23.3630   43.2530   26.6400 C.2   188  HIS188      0.2291
     46  O        -23.0280   43.6570   25.5280 O.2   188  HIS188     -0.2864
     47  CB       -21.6880   41.6650   27.6030 C.3   188  HIS188      0.0771
     48  CG       -20.4040   41.5080   28.3590 C.ar  188  HIS188      0.0820
     49  ND1      -19.1920   41.9510   27.8690 N.ar  188  HIS188     -0.2267
     50  CD2      -20.1400   40.9460   29.5620 C.ar  188  HIS188      0.1154
     51  CE1      -18.2390   41.6670   28.7380 C.ar  188  HIS188      0.1986
     52  NE2      -18.7860   41.0570   29.7730 N.ar  188  HIS188     -0.2212
     53  N        -26.3790   44.8610   27.5200 N.3   190  ILE190     -0.1231
     54  CA       -27.1580   46.0130   27.9630 C.3   190  ILE190      0.1692
     55  C        -26.3780   47.3210   27.8580 C.2   190  ILE190      0.2592
     56  O        -26.9100   48.3320   27.3960 O.2   190  ILE190     -0.2718
     57  CB       -27.6370   45.8390   29.4190 C.3   190  ILE190      0.0266
     58  CG1      -28.7180   44.7390   29.4520 C.3   190  ILE190      0.0019
     59  CG2      -28.1320   47.1430   29.9950 C.3   190  ILE190      0.0020
     60  CD1      -29.0800   44.2790   30.8370 C.3   190  ILE190      0.0001
     61  N        -25.1330   47.3040   28.3280 N.am  191  ALA191     -0.1966
     62  CA       -24.2790   48.4880   28.3000 C.3   191  ALA191      0.1728
     63  C        -23.3270   48.5140   27.1080 C.2   191  ALA191      0.2616
     64  O        -23.1010   49.5680   26.5100 O.2   191  ALA191     -0.2715
     65  CB       -23.4920   48.5950   29.6000 C.3   191  ALA191      0.0334
     66  N        -22.7290   47.3640   26.8070 N.am  192  ALA192     -0.1977
     67  CA       -21.7880   47.2480   25.6980 C.3   192  ALA192      0.1597
     68  C        -22.4840   46.9850   24.3650 C.2   192  ALA192      0.2287
     69  O        -21.8930   47.1820   23.3010 O.2   192  ALA192     -0.2864
     70  CB       -20.7720   46.1520   25.9860 C.3   192  ALA192      0.0319
     71  N        -23.6380   50.6570   23.4260 N.3   195  VAL195     -0.1245
     72  CA       -22.5240   51.5760   23.2150 C.3   195  VAL195      0.1561
     73  C        -21.6370   51.1330   22.0540 C.2   195  VAL195      0.2260
     74  O        -20.8420   51.9190   21.5380 O.2   195  VAL195     -0.2867
     75  CB       -21.6530   51.6990   24.4810 C.3   195  VAL195      0.0252
     76  CG1      -20.3250   52.4070   24.1560 C.3   195  VAL195      0.0019
     77  CG2      -22.4100   52.4450   25.5720 C.3   195  VAL195      0.0019
     78  N         -5.4820   49.2500   31.4460 N.3   234  PHE234     -0.1241
     79  CA        -6.7830   49.4210   32.0820 C.3   234  PHE234      0.1605
     80  C         -7.6000   48.1320   32.0400 C.2   234  PHE234      0.2264
     81  O         -8.6130   48.0050   32.7330 O.2   234  PHE234     -0.2867
     82  CB        -7.5590   50.5510   31.4010 C.3   234  PHE234      0.0534
     83  CG        -7.3040   51.9720   31.8100 C.ar  234  PHE234     -0.0203
     84  CD1       -6.3150   52.2210   32.6570 C.ar  234  PHE234     -0.0042
     85  CD2       -8.0010   53.0180   31.2660 C.ar  234  PHE234     -0.0042
     86  CE1       -6.0150   53.5480   33.0730 C.ar  234  PHE234     -0.0003
     87  CE2       -7.6700   54.3460   31.6420 C.ar  234  PHE234     -0.0003
     88  CZ        -6.7220   54.5810   32.5510 C.ar  234  PHE234     -0.0000
     89  N         -7.8860   45.7190   35.8360 N.3   238  VAL238     -0.1245
     90  CA        -9.2660   45.4250   36.2030 C.3   238  VAL238      0.1561
     91  C         -9.4920   43.9180   36.2970 C.2   238  VAL238      0.2260
     92  O        -10.3500   43.4550   37.0520 O.2   238  VAL238     -0.2867
     93  CB       -10.2520   46.0100   35.1750 C.3   238  VAL238      0.0252
     94  CG1      -11.6630   45.4330   35.3910 C.3   238  VAL238      0.0019
     95  CG2      -10.2690   47.5300   35.2660 C.3   238  VAL238      0.0019
@<TRIPOS>BOND
     1    74    73    2
     2    73    72    1
     3    72    71    1
     4    72    75    1
     5    69    68    2
     6    76    75    1
     7    68    67    1
     8    75    77    1
     9    46    45    2
    10    67    70    1
    11    67    66    1
    12    64    63    2
    13    45    44    1
    14    66    63   am
    15    63    62    1
    16    56    55    2
    17    53    54    1
    18    47    44    1
    19    47    48    1
    20    44    43    1
    21    55    54    1
    22    55    61   am
    23    49    48   ar
    24    49    51   ar
    25    54    57    1
    26    62    61    1
    27    62    65    1
    28    48    50   ar
    29    51    52   ar
    30    43    40   am
    31    41    40    2
    32    57    58    1
    33    57    59    1
    34    58    60    1
    35    50    52   ar
    36    40    39    1
    37    36    35    1
    38    39    38    1
    39    39    42    1
    40    85    87   ar
    41    85    83   ar
    42    82    83    1
    43    82    79    1
    44    38    33   am
    45    78    79    1
    46    34    33    2
    47    87    88   ar
    48    33    32    1
    49    83    84   ar
    50    80    79    1
    51    80    81    2
    52    32    35    1
    53    32    31    1
    54    35    37    1
    55    88    86   ar
    56    84    86   ar
    57    31    26   am
    58    12    11    1
    59    26    27    2
    60    26    25    1
    61    29    28    1
    62    11    10   ar
    63    11     9   ar
    64    93    95    1
    65    93    94    1
    66    93    90    1
    67    28    25    1
    68    28    30    1
    69    10     8   ar
    70    25    24    1
    71    89    90    1
    72     9     7   ar
    73    90    91    1
    74    91    92    2
    75    24    22   am
    76     8     6   ar
    77     7     6   ar
    78    22    23    2
    79    22    21    1
    80     6     5    1
    81    21    20    1
    82     5     2    1
    83     2     1    1
    84     2     3    1
    85    16    15    2
    86    17    18    1
    87    17    14    1
    88    18    19    1
    89    19    13    1
    90     3     4    2
    91    15    14    1
    92    14    13    1
