@<TRIPOS>MOLECULE
tmp/1izlC09.pdb
 89 84 0 0 0
SMALL
GASTEIGER

@<TRIPOS>ATOM
      1  N         48.2110   77.1390   64.8470 N.3    10  ALA10      -0.1245
      2  CA        48.6630   76.5660   66.1090 C.3    10  ALA10       0.1562
      3  C         48.1000   77.3430   67.2960 C.2    10  ALA10       0.2260
      4  O         47.9850   76.8060   68.3990 O.2    10  ALA10      -0.2867
      5  CB        50.1850   76.5500   66.1630 C.3    10  ALA10       0.0290
      6  N         44.2130   76.3740   67.3730 N.3    13  ILE13      -0.1231
      7  CA        43.9450   74.9720   67.6720 C.3    13  ILE13       0.1692
      8  C         44.2900   74.6420   69.1210 C.2    13  ILE13       0.2591
      9  O         43.7910   73.6610   69.6770 O.2    13  ILE13      -0.2718
     10  CB        44.7450   74.0350   66.7460 C.3    13  ILE13       0.0266
     11  CG1       44.1480   72.6260   66.7370 C.3    13  ILE13       0.0019
     12  CG2       46.2490   74.1300   67.0130 C.3    13  ILE13       0.0020
     13  CD1       44.6020   71.7970   65.5840 C.3    13  ILE13       0.0001
     14  N         45.1860   75.4310   69.7060 N.am   14  VAL14      -0.1980
     15  CA        45.6020   75.2400   71.0900 C.3    14  VAL14       0.1595
     16  C         44.6770   76.0030   72.0330 C.2    14  VAL14       0.2287
     17  O         44.4660   75.5920   73.1750 O.2    14  VAL14      -0.2864
     18  CB        47.0480   75.7210   71.3130 C.3    14  VAL14       0.0276
     19  CG1       47.4900   75.5350   72.7600 C.3    14  VAL14       0.0022
     20  CG2       47.9790   74.9000   70.4180 C.3    14  VAL14       0.0022
     21  N         41.3460   73.9450   71.9980 N.3    17  ALA17      -0.1245
     22  CA        41.4230   72.6600   72.6820 C.3    17  ALA17       0.1562
     23  C         41.6660   72.8680   74.1730 C.2    17  ALA17       0.2260
     24  O         41.3220   72.0120   74.9930 O.2    17  ALA17      -0.2867
     25  CB        42.5320   71.8100   72.0800 C.3    17  ALA17       0.0290
     26  N         39.8510   65.4040   76.9070 N.3    40  ILE40      -0.1245
     27  CA        41.0220   66.2690   76.9930 C.3    40  ILE40       0.1561
     28  C         41.6350   66.2570   78.3910 C.2    40  ILE40       0.2260
     29  O         42.8480   66.4090   78.5480 O.2    40  ILE40      -0.2867
     30  CB        40.6710   67.7200   76.6060 C.3    40  ILE40       0.0252
     31  CG1       39.7120   67.8230   75.4420 C.3    40  ILE40       0.0019
     32  CG2       41.9520   68.4960   76.3280 C.3    40  ILE40       0.0019
     33  CD1       39.1750   69.2310   75.1590 C.3    40  ILE40       0.0001
     34  N         44.1450   62.7000   79.2150 N.3    43  PRO43      -0.2102
     35  CA        45.5720   62.6220   78.8780 C.3    43  PRO43       0.1504
     36  C         46.4610   63.4720   79.7860 C.2    43  PRO43       0.2575
     37  O         47.6900   63.3880   79.7190 O.2    43  PRO43      -0.2718
     38  CB        45.6080   63.1440   77.4390 C.3    43  PRO43       0.0282
     39  CG        44.2440   62.8030   76.9140 C.3    43  PRO43       0.0208
     40  CD        43.3830   63.2160   78.0670 C.3    43  PRO43       0.0893
     41  N         45.8380   64.3230   80.5920 N.am   44  HIS44      -0.1976
     42  CA        46.5690   65.1930   81.5040 C.3    44  HIS44       0.1656
     43  C         47.1610   64.4200   82.6780 C.2    44  HIS44       0.2291
     44  O         48.3250   64.6170   83.0340 O.2    44  HIS44      -0.2864
     45  CB        45.6510   66.3010   82.0240 C.3    44  HIS44       0.0771
     46  CG        45.4500   67.4090   81.0350 C.ar   44  HIS44       0.0820
     47  ND1       44.5520   68.4140   81.2520 N.ar   44  HIS44      -0.2267
     48  CD2       46.0640   67.6270   79.8350 C.ar   44  HIS44       0.1154
     49  CE1       44.6030   69.2340   80.2330 C.ar   44  HIS44       0.1986
     50  NE2       45.4840   68.7780   79.3670 N.ar   44  HIS44      -0.2212
     51  N         47.6210   74.8820   84.6970 N.3    67  VAL67      -0.1231
     52  CA        48.5410   74.4170   83.6650 C.3    67  VAL67       0.1692
     53  C         47.9010   74.5840   82.2920 C.2    67  VAL67       0.2592
     54  O         48.5920   74.8200   81.2980 O.2    67  VAL67      -0.2718
     55  CB        48.9140   72.9380   83.8630 C.3    67  VAL67       0.0266
     56  CG1       49.3370   72.1200   82.6080 C.3    67  VAL67       0.0020
     57  CG2       49.9200   72.7720   84.9990 C.3    67  VAL67       0.0020
     58  N         46.5850   74.4010   82.2410 N.am   68  GLY68      -0.1957
     59  CA        45.8530   74.5460   80.9970 C.3    68  GLY68       0.1869
     60  C         45.6120   76.0100   80.6890 C.2    68  GLY68       0.2309
     61  O         45.6220   76.4180   79.5260 O.2    68  GLY68      -0.2863
     62  N         48.6760   77.4910   79.3600 N.3    71  HIS71      -0.1241
     63  CA        48.9880   76.9570   78.0400 C.3    71  HIS71       0.1621
     64  C         48.1670   77.6640   76.9680 C.2    71  HIS71       0.2264
     65  O         48.6240   77.8290   75.8350 O.2    71  HIS71      -0.2867
     66  CB        48.7140   75.4530   77.9970 C.3    71  HIS71       0.0745
     67  CG        49.2710   74.7410   76.7790 C.ar   71  HIS71       0.0817
     68  ND1       50.5870   74.7610   76.4670 N.ar   71  HIS71      -0.2268
     69  CD2       48.6870   74.0300   75.7770 C.ar   71  HIS71       0.1154
     70  CE1       50.7700   74.0350   75.3680 C.ar   71  HIS71       0.1986
     71  NE2       49.6620   73.5610   74.9310 N.ar   71  HIS71      -0.2212
     72  N         59.6940   66.4480   77.7490 N.3   121  LEU121     -0.1245
     73  CA        58.3530   66.4480   78.3190 C.3   121  LEU121      0.1561
     74  C         58.0050   65.0870   78.9170 C.2   121  LEU121      0.2260
     75  O         57.1240   64.9830   79.7740 O.2   121  LEU121     -0.2867
     76  CB        57.3240   66.8240   77.2500 C.3   121  LEU121      0.0270
     77  CG        55.8710   66.9690   77.6760 C.3   121  LEU121      0.0019
     78  CD1       55.6690   68.2250   78.5150 C.3   121  LEU121      0.0001
     79  CD2       54.9540   66.9980   76.4560 C.3   121  LEU121      0.0001
     80  N         38.3440   61.3770   65.8000 N.3   246  HIS246     -0.1241
     81  CA        39.7350   61.6770   65.4880 C.3   246  HIS246      0.1621
     82  C         40.2570   60.6540   64.4840 C.2   246  HIS246      0.2264
     83  O         41.1410   60.9530   63.6820 O.2   246  HIS246     -0.2867
     84  CB        40.5860   61.6360   66.7590 C.3   246  HIS246      0.0745
     85  CG        42.0140   62.1160   66.5730 C.ar  246  HIS246      0.0817
     86  ND1       42.4990   63.3080   66.8980 N.ar  246  HIS246     -0.2268
     87  CD2       43.0660   61.3470   66.1530 C.ar  246  HIS246      0.1154
     88  CE1       43.7970   63.2980   66.7170 C.ar  246  HIS246      0.1986
     89  NE2       44.1170   62.1170   66.2730 N.ar  246  HIS246     -0.2212
@<TRIPOS>BOND
     1    83    82    2
     2    82    81    1
     3     1     2    1
     4    81    80    1
     5    81    84    1
     6    13    11    1
     7     2     5    1
     8     2     3    1
     9    87    89   ar
    10    87    85   ar
    11    89    88   ar
    12    85    84    1
    13    85    86   ar
    14    88    86   ar
    15    11    10    1
    16    10    12    1
    17    10     7    1
    18     3     4    2
    19     6     7    1
    20     7     8    1
    21     8     9    2
    22     8    14   am
    23    14    15    1
    24    20    18    1
    25    15    18    1
    26    15    16    1
    27    18    19    1
    28    21    22    1
    29    16    17    2
    30    25    22    1
    31    22    23    1
    32    23    24    2
    33    71    70   ar
    34    71    69   ar
    35    33    31    1
    36    70    68   ar
    37    31    30    1
    38    69    67   ar
    39    65    64    2
    40    32    30    1
    41    79    77    1
    42    68    67   ar
    43    30    27    1
    44    67    66    1
    45    26    27    1
    46    39    38    1
    47    39    40    1
    48    64    63    1
    49    27    28    1
    50    76    77    1
    51    76    73    1
    52    38    35    1
    53    77    78    1
    54    72    73    1
    55    66    63    1
    56    63    62    1
    57    40    34    1
    58    73    74    1
    59    28    29    2
    60    35    34    1
    61    35    36    1
    62    74    75    2
    63    50    48   ar
    64    50    49   ar
    65    61    60    2
    66    37    36    2
    67    36    41   am
    68    48    46   ar
    69    49    47   ar
    70    41    42    1
    71    60    59    1
    72    59    58    1
    73    46    47   ar
    74    46    45    1
    75    54    53    2
    76    42    45    1
    77    42    43    1
    78    58    53   am
    79    53    52    1
    80    56    55    1
    81    43    44    2
    82    52    55    1
    83    52    51    1
    84    55    57    1
