@<TRIPOS>MOLECULE
tmp/1izlC04.pdb
 117 113 0 0 0
SMALL
GASTEIGER

@<TRIPOS>ATOM
      1  N         41.5940   76.5300   71.2990 N.3    16  TRP16      -0.1227
      2  CA        40.2810   75.9300   71.1010 C.3    16  TRP16       0.1737
      3  C         40.1950   74.5890   71.8240 C.2    16  TRP16       0.2595
      4  O         39.1050   74.1290   72.1710 O.2    16  TRP16      -0.2718
      5  CB        40.0040   75.7350   69.6090 C.3    16  TRP16       0.0564
      6  CG        38.5790   75.4060   69.2570 C.ar   16  TRP16       0.0003
      7  CD1       37.4440   76.0150   69.6910 C.ar   16  TRP16       0.0946
      8  CD2       38.1570   74.3910   68.3430 C.ar   16  TRP16       0.0152
      9  NE1       36.3360   75.4450   69.1120 N.ar   16  TRP16      -0.2442
     10  CE2       36.7550   74.4440   68.2690 C.ar   16  TRP16       0.0810
     11  CE3       38.8450   73.4520   67.5700 C.ar   16  TRP16       0.0012
     12  CZ2       36.0140   73.5690   67.4670 C.ar   16  TRP16       0.0191
     13  CZ3       38.1240   72.6010   66.7550 C.ar   16  TRP16       0.0001
     14  CH2       36.7210   72.6830   66.7150 C.ar   16  TRP16       0.0015
     15  N         41.3460   73.9450   71.9980 N.am   17  ALA17      -0.1980
     16  CA        41.4230   72.6600   72.6820 C.3    17  ALA17       0.1597
     17  C         41.6660   72.8680   74.1730 C.2    17  ALA17       0.2287
     18  O         41.3220   72.0120   74.9930 O.2    17  ALA17      -0.2864
     19  CB        42.5320   71.8100   72.0800 C.3    17  ALA17       0.0319
     20  N         38.3680   74.4210   75.7280 N.3    20  MET20      -0.1245
     21  CA        37.3380   73.3890   75.7390 C.3    20  MET20       0.1570
     22  C         37.5840   72.4240   76.8950 C.2    20  MET20       0.2261
     23  O         36.6990   71.6580   77.2770 O.2    20  MET20      -0.2867
     24  CB        37.3400   72.6210   74.4140 C.3    20  MET20       0.0387
     25  CG        36.2040   71.5900   74.3280 C.3    20  MET20       0.0595
     26  SD        36.0190   70.8120   72.7180 S.3    20  MET20      -0.1393
     27  CE        35.8960   72.2520   71.6350 C.3    20  MET20       0.0692
     28  N         35.2300   72.4480   80.5540 N.3    24  GLU24      -0.1245
     29  CA        34.6810   71.1240   80.8220 C.3    24  GLU24       0.1567
     30  C         35.1070   70.6170   82.1960 C.2    24  GLU24       0.2260
     31  O         34.4000   69.8230   82.8180 O.2    24  GLU24      -0.2867
     32  CB        35.1330   70.1350   79.7450 C.3    24  GLU24       0.0388
     33  CG        34.4200   68.7880   79.8270 C.3    24  GLU24       0.1160
     34  CD        34.6640   67.7640   78.7700 C.2    24  GLU24       0.3649
     35  OE1       35.8350   67.8990   78.2770 O.co2  24  GLU24      -0.2457
     36  OE2       33.9060   66.8830   78.3890 O.co2  24  GLU24      -0.2457
     37  N         32.1220   69.5500   84.8750 N.3    28  PHE28      -0.1241
     38  CA        32.0060   68.2160   85.4490 C.3    28  PHE28       0.1605
     39  C         32.5980   68.1760   86.8590 C.2    28  PHE28       0.2264
     40  O         32.1280   68.8820   87.7540 O.2    28  PHE28      -0.2867
     41  CB        32.6970   67.1890   84.5440 C.3    28  PHE28       0.0534
     42  CG        31.8650   66.9630   83.2940 C.ar   28  PHE28      -0.0203
     43  CD1       32.0580   67.7660   82.1880 C.ar   28  PHE28      -0.0042
     44  CD2       30.8990   65.9800   83.2730 C.ar   28  PHE28      -0.0042
     45  CE1       31.2960   67.5860   81.0580 C.ar   28  PHE28      -0.0003
     46  CE2       30.1350   65.8060   82.1300 C.ar   28  PHE28      -0.0003
     47  CZ        30.3310   66.6100   81.0200 C.ar   28  PHE28      -0.0000
     48  N         32.6300   62.2660   80.3750 N.3    37  GLN37      -0.1245
     49  CA        33.0210   63.4220   79.5660 C.3    37  GLN37       0.1566
     50  C         34.3580   64.0350   79.9870 C.2    37  GLN37       0.2260
     51  O         34.4150   64.9040   80.8630 O.2    37  GLN37      -0.2867
     52  CB        31.9180   64.4870   79.5690 C.3    37  GLN37       0.0367
     53  CG        30.6830   64.0120   78.8260 C.3    37  GLN37       0.0905
     54  CD        30.9210   63.8660   77.3360 C.2    37  GLN37       0.2608
     55  OE1       31.6880   64.6280   76.7340 O.2    37  GLN37      -0.2717
     56  NE2       30.2760   62.9330   76.7420 N.am   37  GLN37      -0.0878
     57  N         37.6810   63.8350   77.4260 N.3    39  LEU39      -0.1245
     58  CA        38.6240   63.3620   76.4200 C.3    39  LEU39       0.1561
     59  C         39.9290   64.1560   76.4530 C.2    39  LEU39       0.2260
     60  O         40.9780   63.6530   76.0460 O.2    39  LEU39      -0.2867
     61  CB        38.0000   63.4530   75.0260 C.3    39  LEU39       0.0270
     62  CG        36.8780   62.4620   74.7170 C.3    39  LEU39       0.0019
     63  CD1       36.2960   62.7980   73.3650 C.3    39  LEU39       0.0001
     64  CD2       37.3700   61.0370   74.7040 C.3    39  LEU39       0.0001
     65  N         27.6180   58.3350   78.8090 N.3   236  VAL236     -0.1245
     66  CA        28.3900   58.4420   77.5690 C.3   236  VAL236      0.1561
     67  C         29.5960   57.5010   77.5660 C.2   236  VAL236      0.2260
     68  O         30.1230   57.1490   78.6220 O.2   236  VAL236     -0.2867
     69  CB        28.9040   59.8800   77.3340 C.3   236  VAL236      0.0252
     70  CG1       29.8960   60.3730   78.3560 C.3   236  VAL236      0.0019
     71  CG2       29.4070   60.0670   75.9120 C.3   236  VAL236      0.0019
     72  N         34.5680   57.9830   71.6030 N.3   241  TRP241     -0.1227
     73  CA        34.4010   59.2750   70.9440 C.3   241  TRP241      0.1737
     74  C         35.6630   59.7030   70.1970 C.2   241  TRP241      0.2595
     75  O         35.5880   60.4380   69.2110 O.2   241  TRP241     -0.2718
     76  CB        34.0000   60.3500   71.9580 C.3   241  TRP241      0.0564
     77  CG        32.5530   60.2940   72.3490 C.ar  241  TRP241      0.0003
     78  CD1       32.0400   59.8460   73.5310 C.ar  241  TRP241      0.0946
     79  CD2       31.4360   60.6970   71.5500 C.ar  241  TRP241      0.0152
     80  NE1       30.6690   59.9440   73.5190 N.ar  241  TRP241     -0.2442
     81  CE2       30.2710   60.4630   72.3150 C.ar  241  TRP241      0.0810
     82  CE3       31.3030   61.2330   70.2630 C.ar  241  TRP241      0.0012
     83  CZ2       28.9880   60.7470   71.8320 C.ar  241  TRP241      0.0191
     84  CZ3       30.0270   61.5150   69.7830 C.ar  241  TRP241      0.0001
     85  CH2       28.8870   61.2710   70.5690 C.ar  241  TRP241      0.0015
     86  N         36.8160   59.2720   70.6970 N.am  242  LEU242     -0.1980
     87  CA        38.0990   59.5970   70.0800 C.3   242  LEU242      0.1596
     88  C         38.4030   58.6430   68.9270 C.2   242  LEU242      0.2287
     89  O         39.0950   59.0060   67.9750 O.2   242  LEU242     -0.2864
     90  CB        39.2210   59.5280   71.1190 C.3   242  LEU242      0.0297
     91  CG        40.6360   60.0450   70.9370 C.3   242  LEU242      0.0022
     92  CD1       41.6420   59.2000   70.2190 C.3   242  LEU242      0.0001
     93  CD2       40.7770   61.4340   70.3290 C.3   242  LEU242      0.0001
     94  N         35.9730   60.0480   65.9040 N.3   245  SER245     -0.1202
     95  CA        35.9410   61.4670   65.5740 C.3   245  SER245      0.2020
     96  C         37.3290   61.9090   65.1280 C.2   245  SER245      0.2618
     97  O         37.4700   62.7520   64.2390 O.2   245  SER245     -0.2717
     98  CB        35.5060   62.2860   66.7910 C.3   245  SER245      0.2103
     99  OG        35.4940   63.6090   66.5850 O.3   245  SER245     -0.2182
    100  N         38.3440   61.3770   65.8000 N.am  246  HIS246     -0.1975
    101  CA        39.7350   61.6770   65.4880 C.3   246  HIS246      0.1656
    102  C         40.2570   60.6540   64.4840 C.2   246  HIS246      0.2291
    103  O         41.1410   60.9530   63.6820 O.2   246  HIS246     -0.2864
    104  CB        40.5860   61.6360   66.7590 C.3   246  HIS246      0.0771
    105  CG        42.0140   62.1160   66.5730 C.ar  246  HIS246      0.0820
    106  ND1       42.4990   63.3080   66.8980 N.ar  246  HIS246     -0.2267
    107  CD2       43.0660   61.3470   66.1530 C.ar  246  HIS246      0.1154
    108  CE1       43.7970   63.2980   66.7170 C.ar  246  HIS246      0.1986
    109  NE2       44.1170   62.1170   66.2730 N.ar  246  HIS246     -0.2212
    110  N         38.7470   61.5300   61.1730 N.3   249  LEU249     -0.1245
    111  CA        39.3720   62.7350   60.6420 C.3   249  LEU249      0.1561
    112  C         40.7930   62.4370   60.1690 C.2   249  LEU249      0.2260
    113  O         41.3740   63.2100   59.4050 O.2   249  LEU249     -0.2867
    114  CB        39.3980   63.8330   61.7080 C.3   249  LEU249      0.0270
    115  CG        39.9310   65.2020   61.3110 C.3   249  LEU249      0.0019
    116  CD1       38.9550   65.9220   60.3890 C.3   249  LEU249      0.0001
    117  CD2       40.2070   66.0490   62.5510 C.3   249  LEU249      0.0001
@<TRIPOS>BOND
     1   113   112    2
     2   112   111    1
     3   116   115    1
     4   111   110    1
     5   111   114    1
     6   115   114    1
     7   115   117    1
     8   103   102    2
     9    97    96    2
    10   102   101    1
    11    96    95    1
    12    96   100   am
    13   101   100    1
    14   101   104    1
    15    95    94    1
    16    95    98    1
    17   107   109   ar
    18   107   105   ar
    19   109   108   ar
    20   105   104    1
    21   105   106   ar
    22    99    98    1
    23    14    13   ar
    24    14    12   ar
    25   108   106   ar
    26    13    11   ar
    27    12    10   ar
    28    11     8   ar
    29    89    88    2
    30    10     8   ar
    31    10     9   ar
    32     8     6   ar
    33    88    87    1
    34     9     7   ar
    35    75    74    2
    36     6     5    1
    37     6     7   ar
    38     5     2    1
    39    84    82   ar
    40    84    85   ar
    41    87    86    1
    42    87    90    1
    43    74    86   am
    44    74    73    1
    45    92    91    1
    46    82    79   ar
    47    93    91    1
    48    85    83   ar
    49    91    90    1
    50    73    72    1
    51    73    76    1
    52     2     1    1
    53     2     3    1
    54    79    81   ar
    55    79    77   ar
    56    27    26    1
    57     3    15   am
    58     3     4    2
    59    83    81   ar
    60    76    77    1
    61    15    16    1
    62    19    16    1
    63    81    80   ar
    64    77    78   ar
    65    16    17    1
    66    26    25    1
    67    63    62    1
    68    80    78   ar
    69    17    18    2
    70    25    24    1
    71    24    21    1
    72    64    62    1
    73    62    61    1
    74    61    58    1
    75    20    21    1
    76    21    22    1
    77    71    69    1
    78    60    59    2
    79    58    59    1
    80    58    57    1
    81    55    54    2
    82    56    54   am
    83    22    23    2
    84    69    66    1
    85    69    70    1
    86    54    53    1
    87    67    66    1
    88    67    68    2
    89    66    65    1
    90    35    34   ar
    91    36    34   ar
    92    34    33    1
    93    53    52    1
    94    49    52    1
    95    49    50    1
    96    49    48    1
    97    32    33    1
    98    32    29    1
    99    50    51    2
   100    28    29    1
   101    29    30    1
   102    47    45   ar
   103    47    46   ar
   104    45    43   ar
   105    46    44   ar
   106    43    42   ar
   107    30    31    2
   108    44    42   ar
   109    42    41    1
   110    41    38    1
   111    37    38    1
   112    38    39    1
   113    39    40    2
