@<TRIPOS>MOLECULE
tmp/1izlC07.pdb
 97 93 0 0 0
SMALL
GASTEIGER

@<TRIPOS>ATOM
      1  N         53.2060   83.8470   52.9310 N.3     1  LYS1       -0.1231
      2  CA        52.2440   83.5650   54.0370 C.3     1  LYS1        0.1693
      3  C         52.1950   82.0690   54.3460 C.2     1  LYS1        0.2591
      4  O         51.1320   81.5160   54.6360 O.2     1  LYS1       -0.2718
      5  CB        50.8500   84.0750   53.6620 C.3     1  LYS1        0.0285
      6  CG        50.6890   85.5830   53.6000 C.3     1  LYS1        0.0035
      7  CD        49.2310   85.9810   53.4160 C.3     1  LYS1        0.0206
      8  CE        49.1240   87.3480   52.7630 C.3     1  LYS1        0.1093
      9  NZ        49.9750   88.3690   53.4290 N.3     1  LYS1       -0.1314
     10  N         53.3490   81.4170   54.2400 N.am    2  LEU2       -0.1980
     11  CA        53.4610   79.9880   54.5070 C.3     2  LEU2        0.1596
     12  C         53.7230   79.7340   55.9890 C.2     2  LEU2        0.2287
     13  O         53.2820   78.7260   56.5440 O.2     2  LEU2       -0.2864
     14  CB        54.5870   79.3800   53.6700 C.3     2  LEU2        0.0297
     15  CG        54.3350   79.2740   52.1660 C.3     2  LEU2        0.0022
     16  CD1       55.6000   78.7910   51.4980 C.3     2  LEU2        0.0001
     17  CD2       53.2120   78.3210   51.8470 C.3     2  LEU2        0.0001
     18  N         50.5290   80.8880   58.1540 N.3     5  ALA5       -0.1231
     19  CA        49.3990   79.9690   58.0740 C.3     5  ALA5        0.1694
     20  C         49.5670   78.8350   59.0830 C.2     5  ALA5        0.2592
     21  O         48.6150   78.1090   59.3820 O.2     5  ALA5       -0.2718
     22  CB        49.2780   79.4060   56.6650 C.3     5  ALA5        0.0304
     23  N         50.7950   78.6570   59.5580 N.am    6  HIS6       -0.1976
     24  CA        51.1120   77.6230   60.5340 C.3     6  HIS6        0.1656
     25  C         51.0250   78.1720   61.9560 C.2     6  HIS6        0.2291
     26  O         50.8050   77.4170   62.9070 O.2     6  HIS6       -0.2864
     27  CB        52.5140   77.0680   60.2790 C.3     6  HIS6        0.0771
     28  CG        52.7770   75.7670   60.9600 C.ar    6  HIS6        0.0820
     29  ND1       52.5010   74.5520   60.3800 N.ar    6  HIS6       -0.2267
     30  CD2       53.3330   75.4920   62.1600 C.ar    6  HIS6        0.1154
     31  CE1       52.9070   73.5780   61.1720 C.ar    6  HIS6        0.1986
     32  NE2       53.4190   74.1210   62.2600 N.ar    6  HIS6       -0.2212
     33  N         47.3380   78.8860   62.9460 N.3     9  HIS9       -0.1241
     34  CA        46.6670   77.5970   63.0360 C.3     9  HIS9        0.1621
     35  C         46.9910   76.9210   64.3640 C.2     9  HIS9        0.2264
     36  O         46.1740   76.1730   64.9040 O.2     9  HIS9       -0.2867
     37  CB        47.0940   76.6940   61.8770 C.3     9  HIS9        0.0745
     38  CG        46.4590   75.3400   61.9010 C.ar    9  HIS9        0.0817
     39  ND1       47.1320   74.2090   62.3140 N.ar    9  HIS9       -0.2268
     40  CD2       45.2100   74.9340   61.5720 C.ar    9  HIS9        0.1154
     41  CE1       46.3240   73.1670   62.2400 C.ar    9  HIS9        0.1986
     42  NE2       45.1520   73.5800   61.7920 N.ar    9  HIS9       -0.2212
     43  N         57.3570   71.2760   47.9350 N.3   192  GLY192     -0.1210
     44  CA        56.6130   71.7290   49.0970 C.3   192  GLY192      0.1956
     45  C         55.3600   70.9110   49.3440 C.2   192  GLY192      0.2611
     46  O         54.8580   70.8590   50.4670 O.2   192  GLY192     -0.2717
     47  N         54.8280   70.3150   48.2800 N.am  193  GLU193     -0.1979
     48  CA        53.6260   69.4930   48.3750 C.3   193  GLU193      0.1602
     49  C         53.9700   68.0420   48.6960 C.2   193  GLU193      0.2287
     50  O         53.2110   67.3530   49.3770 O.2   193  GLU193     -0.2864
     51  CB        52.8320   69.5620   47.0680 C.3   193  GLU193      0.0415
     52  CG        51.5800   68.7050   47.1920 C.3   193  GLU193      0.1163
     53  CD        50.4740   69.5710   47.7780 C.2   193  GLU193      0.3649
     54  OE1       50.4400   70.7630   47.3970 O.co2 193  GLU193     -0.2457
     55  OE2       49.7000   69.0170   48.5830 O.co2 193  GLU193     -0.2457
     56  N         56.4870   67.0720   50.4780 N.3   195  TYR195     -0.1227
     57  CA        56.9180   67.0300   51.8710 C.3   195  TYR195      0.1736
     58  C         55.7270   67.1880   52.8130 C.2   195  TYR195      0.2595
     59  O         55.8000   66.8180   53.9870 O.2   195  TYR195     -0.2718
     60  CB        57.9450   68.1330   52.1400 C.3   195  TYR195      0.0548
     61  CG        58.4920   68.1530   53.5420 C.ar  195  TYR195     -0.0200
     62  CD1       59.2110   67.0950   54.0450 C.ar  195  TYR195     -0.0009
     63  CD2       58.2790   69.2100   54.3660 C.ar  195  TYR195     -0.0009
     64  CE1       59.7180   67.0820   55.3350 C.ar  195  TYR195      0.0417
     65  CE2       58.7700   69.2100   55.6740 C.ar  195  TYR195      0.0417
     66  CZ        59.5140   68.1860   56.1200 C.ar  195  TYR195      0.1957
     67  OH        59.9850   68.2160   57.4330 O.3   195  TYR195     -0.2866
     68  N         54.6500   67.7780   52.3030 N.am  196  LEU196     -0.1980
     69  CA        53.4380   67.9900   53.0850 C.3   196  LEU196      0.1596
     70  C         52.5680   66.7360   53.1110 C.2   196  LEU196      0.2287
     71  O         51.8720   66.4770   54.0930 O.2   196  LEU196     -0.2864
     72  CB        52.6390   69.1650   52.5180 C.3   196  LEU196      0.0297
     73  CG        51.3840   69.6000   53.2590 C.3   196  LEU196      0.0022
     74  CD1       51.7350   70.2870   54.5730 C.3   196  LEU196      0.0001
     75  CD2       50.5400   70.5280   52.3880 C.3   196  LEU196      0.0001
     76  N         54.3170   64.1320   55.2940 N.3   199  SER199     -0.1202
     77  CA        54.2360   64.5560   56.6860 C.3   199  SER199      0.2020
     78  C         52.8590   64.2580   57.2690 C.2   199  SER199      0.2618
     79  O         52.7170   64.0650   58.4780 O.2   199  SER199     -0.2717
     80  CB        54.5310   66.0520   56.7990 C.3   199  SER199      0.2103
     81  OG        54.4340   66.5370   58.0430 O.3   199  SER199     -0.2182
     82  N         51.8430   64.2800   56.4110 N.am  200  LEU200     -0.1979
     83  CA        50.4700   64.0050   56.8230 C.3   200  LEU200      0.1596
     84  C         50.1860   62.5070   56.7860 C.2   200  LEU200      0.2287
     85  O         49.3780   62.0030   57.5670 O.2   200  LEU200     -0.2864
     86  CB        49.4850   64.7420   55.9160 C.3   200  LEU200      0.0297
     87  CG        49.1910   66.1930   56.3020 C.3   200  LEU200      0.0022
     88  CD1       48.2880   66.8130   55.2510 C.3   200  LEU200      0.0001
     89  CD2       48.4350   66.2240   57.6290 C.3   200  LEU200      0.0001
     90  N         51.7830   61.1460   59.9190 N.3   203  LEU203     -0.1245
     91  CA        51.0860   61.6230   61.1090 C.3   203  LEU203      0.1561
     92  C         49.7370   60.9270   61.2630 C.2   203  LEU203      0.2260
     93  O         49.2580   60.7290   62.3800 O.2   203  LEU203     -0.2867
     94  CB        50.8850   63.1390   61.0370 C.3   203  LEU203      0.0270
     95  CG        50.2560   63.8340   62.2350 C.3   203  LEU203      0.0019
     96  CD1       51.2220   63.8750   63.4130 C.3   203  LEU203      0.0001
     97  CD2       49.8180   65.2490   61.8650 C.3   203  LEU203      0.0001
@<TRIPOS>BOND
     1    51    52    1
     2    51    48    1
     3    52    53    1
     4    54    53   ar
     5    53    55   ar
     6    43    44    1
     7    47    48    1
     8    47    45   am
     9    48    49    1
    10    49    50    2
    11    44    45    1
    12    45    46    2
    13    56    57    1
    14    16    15    1
    15    17    15    1
    16    57    60    1
    17    57    58    1
    18    60    61    1
    19    15    14    1
    20    68    58   am
    21    68    69    1
    22    75    73    1
    23    72    69    1
    24    72    73    1
    25     8     7    1
    26     8     9    1
    27    58    59    2
    28     1     2    1
    29    69    70    1
    30    70    71    2
    31    73    74    1
    32     7     6    1
    33    61    62   ar
    34    61    63   ar
    35     6     5    1
    36     5     2    1
    37    14    11    1
    38     2     3    1
    39    62    64   ar
    40    10     3   am
    41    10    11    1
    42     3     4    2
    43    63    65   ar
    44    11    12    1
    45    88    87    1
    46    76    77    1
    47    64    66   ar
    48    65    66   ar
    49    86    87    1
    50    86    83    1
    51    12    13    2
    52    66    67    1
    53    87    89    1
    54    82    83    1
    55    82    78   am
    56    22    19    1
    57    77    80    1
    58    77    78    1
    59    84    83    1
    60    84    85    2
    61    80    81    1
    62    78    79    2
    63    19    18    1
    64    19    20    1
    65    20    21    2
    66    20    23   am
    67    23    24    1
    68    90    91    1
    69    27    24    1
    70    27    28    1
    71    29    28   ar
    72    29    31   ar
    73    24    25    1
    74    28    30   ar
    75    94    91    1
    76    94    95    1
    77    91    92    1
    78    31    32   ar
    79    92    93    2
    80    40    42   ar
    81    40    38   ar
    82    42    41   ar
    83    97    95    1
    84    37    38    1
    85    37    34    1
    86    38    39   ar
    87    25    26    2
    88    30    32   ar
    89    95    96    1
    90    41    39   ar
    91    33    34    1
    92    34    35    1
    93    35    36    2
