@<TRIPOS>MOLECULE
tmp/1izlC02.pdb
 121 119 0 0 0
SMALL
GASTEIGER

@<TRIPOS>ATOM
      1  N         63.2910   80.0990   51.3160 N.3    97  TRP97      -0.1241
      2  CA        62.0740   79.3450   50.9000 C.3    97  TRP97       0.1605
      3  C         61.7220   79.6300   49.4410 C.2    97  TRP97       0.2264
      4  O         60.8160   80.4140   49.1460 O.2    97  TRP97      -0.2867
      5  CB        60.8930   79.7020   51.8070 C.3    97  TRP97       0.0550
      6  CG        61.0390   79.2750   53.2100 C.ar   97  TRP97       0.0003
      7  CD1       61.1840   80.1200   54.2490 C.ar   97  TRP97       0.0946
      8  CD2       60.9870   77.9340   53.7630 C.ar   97  TRP97       0.0152
      9  NE1       61.2630   79.4130   55.4260 N.ar   97  TRP97      -0.2442
     10  CE2       61.1370   78.0680   55.1700 C.ar   97  TRP97       0.0810
     11  CE3       60.8030   76.6410   53.2190 C.ar   97  TRP97       0.0012
     12  CZ2       61.1320   76.9690   56.0300 C.ar   97  TRP97       0.0191
     13  CZ3       60.7630   75.5630   54.0790 C.ar   97  TRP97       0.0001
     14  CH2       60.9570   75.7120   55.4650 C.ar   97  TRP97       0.0015
     15  N         66.1490   73.3970   51.1720 N.3   104  THR104     -0.1218
     16  CA        65.1030   72.6500   51.8660 C.3   104  THR104      0.1862
     17  C         65.6710   71.6460   52.8630 C.2   104  THR104      0.2287
     18  O         64.9690   71.1980   53.7730 O.2   104  THR104     -0.2866
     19  CB        64.2110   71.8870   50.8740 C.3   104  THR104      0.1770
     20  OG1       63.4640   72.9290   50.2420 O.3   104  THR104     -0.2211
     21  CG2       63.2130   70.9640   51.5940 C.3   104  THR104      0.0375
     22  N         66.6270   73.7020   55.9390 N.3   107  LEU107     -0.1231
     23  CA        65.4060   74.2970   56.4710 C.3   107  LEU107      0.1693
     24  C         64.5250   73.2540   57.1490 C.2   107  LEU107      0.2592
     25  O         64.7610   72.0510   57.0340 O.2   107  LEU107     -0.2718
     26  CB        64.6190   74.9880   55.3560 C.3   107  LEU107      0.0284
     27  CG        65.0590   76.3010   54.8880 C.3   107  LEU107      0.0019
     28  CD1       64.0800   76.9180   53.8910 C.3   107  LEU107      0.0001
     29  CD2       65.3780   77.2750   56.0010 C.3   107  LEU107      0.0001
     30  N         63.4920   73.7280   57.8380 N.am  108  GLY108     -0.1957
     31  CA        62.5860   72.8280   58.5270 C.3   108  GLY108      0.1869
     32  C         63.2590   72.1130   59.6790 C.2   108  GLY108      0.2309
     33  O         62.9320   70.9630   59.9800 O.2   108  GLY108     -0.2863
     34  N         63.0110   71.3080   62.6150 N.3   110  HIS110     -0.1226
     35  CA        62.0640   71.1090   63.7010 C.3   110  HIS110      0.1752
     36  C         62.2300   69.7220   64.3100 C.2   110  HIS110      0.2595
     37  O         61.3510   69.2400   65.0250 O.2   110  HIS110     -0.2718
     38  CB        60.6300   71.2950   63.1980 C.3   110  HIS110      0.0759
     39  CG        60.3150   72.6970   62.7780 C.ar  110  HIS110      0.0818
     40  ND1       59.4350   73.5020   63.4710 N.ar  110  HIS110     -0.2268
     41  CD2       60.7640   73.4420   61.7390 C.ar  110  HIS110      0.1154
     42  CE1       59.3570   74.6770   62.8790 C.ar  110  HIS110      0.1986
     43  NE2       60.1530   74.6680   61.8240 N.ar  110  HIS110     -0.2212
     44  N         63.3300   69.0630   63.9630 N.am  111  LEU111     -0.1980
     45  CA        63.6350   67.7380   64.4850 C.3   111  LEU111      0.1596
     46  C         64.3070   67.9000   65.8430 C.2   111  LEU111      0.2287
     47  O         64.0760   67.1130   66.7600 O.2   111  LEU111     -0.2864
     48  CB        64.5620   66.9860   63.5270 C.3   111  LEU111      0.0297
     49  CG        63.9470   66.5300   62.2040 C.3   111  LEU111      0.0022
     50  CD1       65.0390   65.9420   61.3410 C.3   111  LEU111      0.0001
     51  CD2       62.8690   65.4970   62.4080 C.3   111  LEU111      0.0001
     52  N         61.4220   69.2660   68.1480 N.3   114  LEU114     -0.1245
     53  CA        60.3920   68.2960   68.5060 C.3   114  LEU114      0.1561
     54  C         61.0100   67.1230   69.2590 C.2   114  LEU114      0.2260
     55  O         60.3100   66.3950   69.9690 O.2   114  LEU114     -0.2867
     56  CB        59.6770   67.7880   67.2520 C.3   114  LEU114      0.0270
     57  CG        58.3730   67.0380   67.4980 C.3   114  LEU114      0.0019
     58  CD1       57.2770   67.9940   67.8170 C.3   114  LEU114      0.0001
     59  CD2       57.9260   66.2140   66.2880 C.3   114  LEU114      0.0001
     60  N         61.4650   66.2450   45.1470 N.3   190  TRP190     -0.1241
     61  CA        61.5100   67.1100   46.3230 C.3   190  TRP190      0.1605
     62  C         60.7200   68.3840   46.0400 C.2   190  TRP190      0.2264
     63  O         60.9790   69.0770   45.0540 O.2   190  TRP190     -0.2867
     64  CB        62.9590   67.4640   46.6740 C.3   190  TRP190      0.0550
     65  CG        63.7710   66.3080   47.1830 C.ar  190  TRP190      0.0003
     66  CD1       64.7470   65.6280   46.5070 C.ar  190  TRP190      0.0946
     67  CD2       63.6980   65.7140   48.4850 C.ar  190  TRP190      0.0152
     68  NE1       65.2880   64.6520   47.3100 N.ar  190  TRP190     -0.2442
     69  CE2       64.6630   64.6810   48.5280 C.ar  190  TRP190      0.0810
     70  CE3       62.9140   65.9540   49.6210 C.ar  190  TRP190      0.0012
     71  CZ2       64.8630   63.8890   49.6650 C.ar  190  TRP190      0.0191
     72  CZ3       63.1130   65.1640   50.7510 C.ar  190  TRP190      0.0001
     73  CH2       64.0810   64.1460   50.7620 C.ar  190  TRP190      0.0015
     74  N         55.1060   67.5790   48.1790 N.3   194  ALA194     -0.1231
     75  CA        55.5620   66.2120   48.4100 C.3   194  ALA194      0.1694
     76  C         55.9750   66.0100   49.8650 C.2   194  ALA194      0.2592
     77  O         55.8600   64.9080   50.4060 O.2   194  ALA194     -0.2718
     78  CB        56.7230   65.8830   47.4820 C.3   194  ALA194      0.0304
     79  N         56.4870   67.0720   50.4780 N.am  195  TYR195     -0.1976
     80  CA        56.9180   67.0300   51.8710 C.3   195  TYR195      0.1639
     81  C         55.7270   67.1880   52.8130 C.2   195  TYR195      0.2290
     82  O         55.8000   66.8180   53.9870 O.2   195  TYR195     -0.2864
     83  CB        57.9450   68.1330   52.1400 C.3   195  TYR195      0.0560
     84  CG        58.4920   68.1530   53.5420 C.ar  195  TYR195     -0.0198
     85  CD1       59.2110   67.0950   54.0450 C.ar  195  TYR195     -0.0009
     86  CD2       58.2790   69.2100   54.3660 C.ar  195  TYR195     -0.0009
     87  CE1       59.7180   67.0820   55.3350 C.ar  195  TYR195      0.0417
     88  CE2       58.7700   69.2100   55.6740 C.ar  195  TYR195      0.0417
     89  CZ        59.5140   68.1860   56.1200 C.ar  195  TYR195      0.1957
     90  OH        59.9850   68.2160   57.4330 O.3   195  TYR195     -0.2866
     91  N         53.7800   63.5910   52.7230 N.3   198  TYR198     -0.1227
     92  CA        54.5120   62.5620   53.4540 C.3   198  TYR198      0.1736
     93  C         54.4500   62.8540   54.9520 C.2   198  TYR198      0.2596
     94  O         54.5570   61.9440   55.7770 O.2   198  TYR198     -0.2718
     95  CB        55.9720   62.5080   52.9870 C.3   198  TYR198      0.0548
     96  CG        56.7900   61.3960   53.6160 C.ar  198  TYR198     -0.0200
     97  CD1       56.5740   60.0610   53.2710 C.ar  198  TYR198     -0.0009
     98  CD2       57.7880   61.6800   54.5500 C.ar  198  TYR198     -0.0009
     99  CE1       57.3320   59.0360   53.8400 C.ar  198  TYR198      0.0417
    100  CE2       58.5510   60.6640   55.1230 C.ar  198  TYR198      0.0417
    101  CZ        58.3190   59.3460   54.7640 C.ar  198  TYR198      0.1957
    102  OH        59.0780   58.3410   55.3210 O.3   198  TYR198     -0.2866
    103  N         54.3170   64.1320   55.2940 N.am  199  SER199     -0.1952
    104  CA        54.2360   64.5560   56.6860 C.3   199  SER199      0.1924
    105  C         52.8590   64.2580   57.2690 C.2   199  SER199      0.2314
    106  O         52.7170   64.0650   58.4780 O.2   199  SER199     -0.2863
    107  CB        54.5310   66.0520   56.7990 C.3   199  SER199      0.2116
    108  OG        54.4340   66.5370   58.0430 O.3   199  SER199     -0.2180
    109  N         52.3480   60.2030   57.4420 N.3   202  ALA202     -0.1231
    110  CA        53.0650   59.6010   58.5590 C.3   202  ALA202      0.1694
    111  C         52.3890   59.9640   59.8780 C.2   202  ALA202      0.2591
    112  O         52.4540   59.2040   60.8480 O.2   202  ALA202     -0.2718
    113  CB        54.5160   60.0650   58.5630 C.3   202  ALA202      0.0304
    114  N         51.7830   61.1460   59.9190 N.am  203  LEU203     -0.1980
    115  CA        51.0860   61.6230   61.1090 C.3   203  LEU203      0.1596
    116  C         49.7370   60.9270   61.2630 C.2   203  LEU203      0.2287
    117  O         49.2580   60.7290   62.3800 O.2   203  LEU203     -0.2864
    118  CB        50.8850   63.1390   61.0370 C.3   203  LEU203      0.0297
    119  CG        50.2560   63.8340   62.2350 C.3   203  LEU203      0.0022
    120  CD1       51.2220   63.8750   63.4130 C.3   203  LEU203      0.0001
    121  CD2       49.8180   65.2490   61.8650 C.3   203  LEU203      0.0001
@<TRIPOS>BOND
     1    63    62    2
     2    60    61    1
     3    62    61    1
     4    61    64    1
     5    66    65   ar
     6    66    68   ar
     7    64    65    1
     8    65    67   ar
     9    68    69   ar
    10    78    75    1
    11    74    75    1
    12    75    76    1
    13    67    69   ar
    14    67    70   ar
    15    69    71   ar
    16     4     3    2
    17     3     2    1
    18    70    72   ar
    19    71    73   ar
    20    76    77    2
    21    76    79   am
    22    20    19    1
    23    79    80    1
    24    72    73   ar
    25    19    21    1
    26    19    16    1
    27     2     1    1
    28     2     5    1
    29    15    16    1
    30     5     6    1
    31    16    17    1
    32    80    83    1
    33    80    81    1
    34    83    84    1
    35    91    92    1
    36    81    82    2
    37    17    18    2
    38    95    92    1
    39    95    96    1
    40     6     8   ar
    41     6     7   ar
    42    11     8   ar
    43    11    13   ar
    44    97    96   ar
    45    97    99   ar
    46    92    93    1
    47    84    85   ar
    48    84    86   ar
    49    96    98   ar
    50     8    10   ar
    51    99   101   ar
    52    28    27    1
    53    85    87   ar
    54    13    14   ar
    55     7     9   ar
    56    86    88   ar
    57    98   100   ar
    58   101   100   ar
    59   101   102    1
    60    27    26    1
    61    27    29    1
    62    93   103   am
    63    93    94    2
    64    10     9   ar
    65    10    12   ar
    66   103   104    1
    67    87    89   ar
    68    26    23    1
    69    14    12   ar
    70    88    89   ar
    71    22    23    1
    72    89    90    1
    73    23    24    1
    74   104   107    1
    75   104   105    1
    76   107   108    1
    77    25    24    2
    78    24    30   am
    79   105   106    2
    80   109   110    1
    81    30    31    1
    82    31    32    1
    83   110   113    1
    84   110   111    1
    85    32    33    2
    86   111   114   am
    87   111   112    2
    88   114   115    1
    89   118   115    1
    90   118   119    1
    91   115   116    1
    92   116   117    2
    93    50    49    1
    94    41    43   ar
    95    41    39   ar
    96    43    42   ar
    97   121   119    1
    98    49    51    1
    99    49    48    1
   100   119   120    1
   101    34    35    1
   102    39    38    1
   103    39    40   ar
   104    42    40   ar
   105    38    35    1
   106    48    45    1
   107    35    36    1
   108    44    36   am
   109    44    45    1
   110    36    37    2
   111    45    46    1
   112    46    47    2
   113    59    57    1
   114    56    57    1
   115    56    53    1
   116    57    58    1
   117    52    53    1
   118    53    54    1
   119    54    55    2
