@<TRIPOS>MOLECULE
tmp/1izlO00.pdb
 141 137 0 0 0
SMALL
GASTEIGER

@<TRIPOS>ATOM
      1  N          3.4650   -4.9820    0.5560 N.3   119  ALA119     -0.1245
      2  CA         3.2780   -5.1340    1.9920 C.3   119  ALA119      0.1562
      3  C          1.9060   -4.6130    2.4060 C.2   119  ALA119      0.2260
      4  O          1.3620   -5.0260    3.4280 O.2   119  ALA119     -0.2867
      5  CB         4.3740   -4.3940    2.7450 C.3   119  ALA119      0.0290
      6  N         -0.5960   -7.2170    1.3760 N.3   122  VAL122     -0.1231
      7  CA        -0.2620   -8.4400    2.0970 C.3   122  VAL122      0.1692
      8  C         -0.9640   -8.4900    3.4510 C.2   122  VAL122      0.2592
      9  O         -1.1690   -9.5660    4.0140 O.2   122  VAL122     -0.2718
     10  CB         1.2570   -8.5580    2.3240 C.3   122  VAL122      0.0266
     11  CG1        1.8480   -7.4970    3.2150 C.3   122  VAL122      0.0020
     12  CG2        1.6480   -9.9590    2.7660 C.3   122  VAL122      0.0020
     13  N         -1.2970   -7.3190    3.9840 N.am  123  PHE123     -0.1976
     14  CA        -1.9770   -7.2270    5.2710 C.3   123  PHE123      0.1639
     15  C         -3.4740   -7.4940    5.1170 C.2   123  PHE123      0.2290
     16  O         -4.1510   -7.8520    6.0820 O.2   123  PHE123     -0.2864
     17  CB        -1.7520   -5.8430    5.8960 C.3   123  PHE123      0.0560
     18  CG        -0.3020   -5.4990    6.1260 C.ar  123  PHE123     -0.0200
     19  CD1        0.0850   -4.1750    6.3160 C.ar  123  PHE123     -0.0042
     20  CD2        0.6780   -6.4900    6.1490 C.ar  123  PHE123     -0.0042
     21  CE1        1.4230   -3.8420    6.5280 C.ar  123  PHE123     -0.0003
     22  CE2        2.0190   -6.1670    6.3590 C.ar  123  PHE123     -0.0003
     23  CZ         2.3900   -4.8400    6.5470 C.ar  123  PHE123     -0.0000
     24  N          5.2890   -9.2230   13.5650 N.3   147  PHE147     -0.1227
     25  CA         5.2730   -9.7750   12.2120 C.3   147  PHE147      0.1736
     26  C          6.6470  -10.3220   11.8250 C.2   147  PHE147      0.2595
     27  O          6.9210  -10.5690   10.6490 O.2   147  PHE147     -0.2718
     28  CB         4.8330   -8.7060   11.2070 C.3   147  PHE147      0.0547
     29  CG         3.4810   -8.9590   10.5990 C.ar  147  PHE147     -0.0202
     30  CD1        2.5790   -7.9150   10.4200 C.ar  147  PHE147     -0.0042
     31  CD2        3.1130  -10.2390   10.1910 C.ar  147  PHE147     -0.0042
     32  CE1        1.3300   -8.1400    9.8440 C.ar  147  PHE147     -0.0003
     33  CE2        1.8660  -10.4740    9.6150 C.ar  147  PHE147     -0.0003
     34  CZ         0.9730   -9.4220    9.4400 C.ar  147  PHE147     -0.0000
     35  N          7.5220  -10.4490   12.8180 N.am  148  MET148     -0.1979
     36  CA         8.8690  -10.9690   12.6150 C.3   148  MET148      0.1605
     37  C          9.0830  -12.1880   13.5090 C.2   148  MET148      0.2287
     38  O         10.1310  -12.8390   13.4520 O.2   148  MET148     -0.2864
     39  CB         9.9060   -9.8920   12.9450 C.3   148  MET148      0.0413
     40  CG         9.6430   -8.5660   12.2740 C.3   148  MET148      0.0598
     41  SD        10.2510   -8.6130   10.5980 S.3   148  MET148     -0.1393
     42  CE        12.0050   -8.6530   11.0490 C.3   148  MET148      0.0692
     43  N          5.1960  -14.5910   12.0940 N.3   151  PHE151     -0.1227
     44  CA         5.3590  -14.9910   10.7000 C.3   151  PHE151      0.1736
     45  C          6.5490  -15.9330   10.5280 C.2   151  PHE151      0.2595
     46  O          6.9640  -16.2220    9.4050 O.2   151  PHE151     -0.2718
     47  CB         5.5380  -13.7560    9.8130 C.3   151  PHE151      0.0547
     48  CG         5.9210  -13.9750    8.3710 C.ar  151  PHE151     -0.0202
     49  CD1        7.1560  -14.4060    7.9650 C.ar  151  PHE151     -0.0042
     50  CD2        5.0350  -13.5200    7.3580 C.ar  151  PHE151     -0.0042
     51  CE1        7.5340  -14.4470    6.6510 C.ar  151  PHE151     -0.0003
     52  CE2        5.4100  -13.5680    6.0390 C.ar  151  PHE151     -0.0003
     53  CZ         6.6650  -14.0010    5.6780 C.ar  151  PHE151     -0.0000
     54  N          7.1340  -16.3460   11.6480 N.am  152  GLN152     -0.1979
     55  CA         8.2700  -17.2570   11.6420 C.3   152  GLN152      0.1601
     56  C          7.8090  -18.6730   11.9770 C.2   152  GLN152      0.2287
     57  O          8.3170  -19.6470   11.4200 O.2   152  GLN152     -0.2864
     58  CB         9.3170  -16.8000   12.6600 C.3   152  GLN152      0.0394
     59  CG        10.5860  -17.6510   12.6870 C.3   152  GLN152      0.0908
     60  CD        11.3700  -17.5840   11.3840 C.2   152  GLN152      0.2608
     61  OE1       11.4720  -16.5270   10.7580 O.2   152  GLN152     -0.2717
     62  NE2       11.9220  -18.7190   10.9680 N.am  152  GLN152     -0.0878
     63  N         10.6940  -19.5770    6.7600 N.3   159  MET159     -0.1245
     64  CA        11.0560  -19.0290    5.4610 C.3   159  MET159      0.1570
     65  C         12.2670  -19.7980    4.9330 C.2   159  MET159      0.2261
     66  O         13.3200  -19.8250    5.5760 O.2   159  MET159     -0.2867
     67  CB        11.3990  -17.5430    5.6050 C.3   159  MET159      0.0387
     68  CG        12.4840  -17.2690    6.6150 C.3   159  MET159      0.0595
     69  SD        13.1210  -15.5310    6.3290 S.3   159  MET159     -0.1393
     70  CE        11.9650  -14.6050    7.2330 C.3   159  MET159      0.0692
     71  N         10.4400  -16.9260    0.1540 N.3   163  HIS163     -0.1241
     72  CA        10.8340  -15.7880    0.9810 C.3   163  HIS163      0.1621
     73  C         12.3530  -15.7320    1.1590 C.2   163  HIS163      0.2264
     74  O         12.8800  -14.8220    1.8040 O.2   163  HIS163     -0.2867
     75  CB        10.1420  -15.8500    2.3460 C.3   163  HIS163      0.0745
     76  CG        10.1750  -14.5600    3.0950 C.ar  163  HIS163      0.0817
     77  ND1        9.2030  -13.5970    2.9650 N.ar  163  HIS163     -0.2268
     78  CD2       11.0460  -14.0930    4.0160 C.ar  163  HIS163      0.1154
     79  CE1        9.4460  -12.6040    3.7990 C.ar  163  HIS163      0.1986
     80  NE2       10.5580  -12.8810    4.4530 N.ar  163  HIS163     -0.2212
     81  N         13.4320  -13.3220   -2.2520 N.3   166  GLY166     -0.1210
     82  CA        13.1750  -11.8960   -2.1570 C.3   166  GLY166      0.1956
     83  C         13.9550  -11.1720   -1.0750 C.2   166  GLY166      0.2611
     84  O         14.2360   -9.9800   -1.2040 O.2   166  GLY166     -0.2717
     85  N         14.2740  -11.8690    0.0130 N.am  167  VAL167     -0.1979
     86  CA        15.0230  -11.2650    1.1120 C.3   167  VAL167      0.1595
     87  C         16.5040  -11.0950    0.7750 C.2   167  VAL167      0.2287
     88  O         17.2280  -10.3800    1.4730 O.2   167  VAL167     -0.2864
     89  CB        14.8970  -12.0960    2.4050 C.3   167  VAL167      0.0276
     90  CG1       15.9300  -11.6320    3.4480 C.3   167  VAL167      0.0022
     91  CG2       13.4830  -11.9940    2.9620 C.3   167  VAL167      0.0022
     92  N         16.4940   -7.6520   -1.9750 N.3   170  VAL170     -0.1231
     93  CA        16.2780   -6.3300   -1.3960 C.3   170  VAL170      0.1692
     94  C         17.4400   -5.9130   -0.4990 C.2   170  VAL170      0.2592
     95  O         17.7220   -4.7220   -0.3450 O.2   170  VAL170     -0.2718
     96  CB        14.9750   -6.2860   -0.5730 C.3   170  VAL170      0.0266
     97  CG1       14.7420   -4.9120    0.0460 C.3   170  VAL170      0.0020
     98  CG2       13.8000   -6.5980   -1.5020 C.3   170  VAL170      0.0020
     99  N         18.0770   -6.8940    0.1340 N.am  171  PHE171     -0.1976
    100  CA        19.2110   -6.6360    1.0150 C.3   171  PHE171      0.1639
    101  C         20.5200   -6.6450    0.2310 C.2   171  PHE171      0.2290
    102  O         21.4440   -5.8870    0.5380 O.2   171  PHE171     -0.2864
    103  CB        19.2660   -7.6800    2.1330 C.3   171  PHE171      0.0560
    104  CG        18.4240   -7.4910    3.3610 C.ar  171  PHE171     -0.0200
    105  CD1       17.5530   -6.4930    3.3850 C.ar  171  PHE171     -0.0042
    106  CD2       18.4670   -8.3700    4.4100 C.ar  171  PHE171     -0.0042
    107  CE1       16.7170   -6.2690    4.5150 C.ar  171  PHE171     -0.0003
    108  CE2       17.6000   -8.1780    5.5160 C.ar  171  PHE171     -0.0003
    109  CZ        16.7780   -7.1270    5.5640 C.ar  171  PHE171     -0.0000
    110  N         12.3030   -9.0110   -6.1810 N.3   238  VAL238     -0.1231
    111  CA        12.2180   -9.1230   -4.7280 C.3   238  VAL238      0.1692
    112  C         10.8590   -8.6590   -4.2070 C.2   238  VAL238      0.2592
    113  O         10.4950   -8.9420   -3.0630 O.2   238  VAL238     -0.2718
    114  CB        13.3160   -8.2910   -4.0400 C.3   238  VAL238      0.0266
    115  CG1       14.7080   -8.7290   -4.4910 C.3   238  VAL238      0.0020
    116  CG2       13.1080   -6.8030   -4.2750 C.3   238  VAL238      0.0020
    117  N         10.1350   -7.9090   -5.0330 N.am  239  TRP239     -0.1976
    118  CA         8.8190   -7.4030   -4.6620 C.3   239  TRP239      0.1640
    119  C          7.7470   -8.4720   -4.8400 C.2   239  TRP239      0.2290
    120  O          6.9550   -8.7250   -3.9320 O.2   239  TRP239     -0.2864
    121  CB         8.4650   -6.1720   -5.4970 C.3   239  TRP239      0.0576
    122  CG         9.2630   -5.0020   -5.0270 C.ar  239  TRP239      0.0006
    123  CD1       10.4020   -4.4920   -5.5750 C.ar  239  TRP239      0.0946
    124  CD2        9.0060   -4.2920   -3.8350 C.ar  239  TRP239      0.0152
    125  NE1       10.8480   -3.4700   -4.7810 N.ar  239  TRP239     -0.2442
    126  CE2       10.0360   -3.3510   -3.6960 C.ar  239  TRP239      0.0810
    127  CE3        8.0340   -4.3750   -2.8550 C.ar  239  TRP239      0.0012
    128  CZ2       10.1270   -2.5040   -2.5860 C.ar  239  TRP239      0.0191
    129  CZ3        8.1040   -3.5530   -1.7450 C.ar  239  TRP239      0.0001
    130  CH2        9.1260   -2.6220   -1.6290 C.ar  239  TRP239      0.0015
    131  N          8.2010  -11.3620   -2.2690 N.3   242  ALA242     -0.1245
    132  CA         7.7660  -11.0650   -0.9110 C.3   242  ALA242      0.1562
    133  C          6.2430  -11.0820   -0.8340 C.2   242  ALA242      0.2260
    134  O          5.6670  -11.5180    0.1660 O.2   242  ALA242     -0.2867
    135  CB         8.3000   -9.7070   -0.4750 C.3   242  ALA242      0.0290
    136  N          3.7920  -14.2370    0.7250 N.3   246  SER246     -0.1217
    137  CA         2.8400  -13.8030    1.7410 C.3   246  SER246      0.1889
    138  C          1.4070  -14.0940    1.3100 C.2   246  SER246      0.2288
    139  O          0.5540  -14.4130    2.1370 O.2   246  SER246     -0.2866
    140  CB         3.0050  -12.3070    2.0140 C.3   246  SER246      0.2089
    141  OG         4.3260  -12.0340    2.5020 O.3   246  SER246     -0.2183
@<TRIPOS>BOND
     1   110   111    1
     2   123   122   ar
     3   123   125   ar
     4   121   122    1
     5   121   118    1
     6   117   118    1
     7   117   112   am
     8   122   124   ar
     9   119   118    1
    10   119   120    2
    11   125   126   ar
    12   111   112    1
    13   111   114    1
    14   115   114    1
    15   116   114    1
    16   112   113    2
    17   124   126   ar
    18   124   127   ar
    19   126   128   ar
    20   127   129   ar
    21   128   130   ar
    22   131   132    1
    23    81    82    1
    24    82    83    1
    25    92    93    1
    26   129   130   ar
    27    98    96    1
    28    93    96    1
    29    93    94    1
    30    84    83    2
    31    83    85   am
    32   132   133    1
    33   132   135    1
    34   133   134    2
    35    96    97    1
    36    94    95    2
    37    94    99   am
    38    85    86    1
    39    99   100    1
    40    71    72    1
    41   101   102    2
    42   101   100    1
    43     1     2    1
    44   136   137    1
    45    87    86    1
    46    87    88    2
    47    72    73    1
    48    72    75    1
    49   100   103    1
    50    86    89    1
    51    73    74    2
    52   138   137    1
    53   138   139    2
    54     6     7    1
    55   137   140    1
    56     2     3    1
    57     2     5    1
    58   140   141    1
    59     7    10    1
    60     7     8    1
    61   103   104    1
    62    10    12    1
    63    10    11    1
    64    75    76    1
    65    89    91    1
    66    89    90    1
    67     3     4    2
    68    77    76   ar
    69    77    79   ar
    70    76    78   ar
    71   104   105   ar
    72   104   106   ar
    73   105   107   ar
    74     8    13   am
    75     8     9    2
    76    79    80   ar
    77    13    14    1
    78    78    80   ar
    79   106   108   ar
    80   107   109   ar
    81    65    64    1
    82    65    66    2
    83    15    14    1
    84    15    16    2
    85    14    17    1
    86    64    67    1
    87    64    63    1
    88   108   109   ar
    89    67    68    1
    90    53    52   ar
    91    53    51   ar
    92    17    18    1
    93    52    50   ar
    94    18    20   ar
    95    18    19   ar
    96    20    22   ar
    97    19    21   ar
    98    69    68    1
    99    69    70    1
   100    22    23   ar
   101    21    23   ar
   102    51    49   ar
   103    50    48   ar
   104    49    48   ar
   105    48    47    1
   106    46    45    2
   107    34    33   ar
   108    34    32   ar
   109    33    31   ar
   110    47    44    1
   111    32    30   ar
   112    31    29   ar
   113    30    29   ar
   114    45    44    1
   115    45    54   am
   116    41    42    1
   117    41    40    1
   118    29    28    1
   119    27    26    2
   120    44    43    1
   121    61    60    2
   122    62    60   am
   123    28    25    1
   124    60    59    1
   125    57    56    2
   126    55    54    1
   127    55    56    1
   128    55    58    1
   129    26    25    1
   130    26    35   am
   131    25    24    1
   132    40    39    1
   133    36    35    1
   134    36    39    1
   135    36    37    1
   136    58    59    1
   137    38    37    2
