@<TRIPOS>MOLECULE
tmp/1izlC06.pdb
 87 80 0 0 0
SMALL
GASTEIGER

@<TRIPOS>ATOM
      1  N         62.9150   60.7380   44.5420 N.3   188  PHE188     -0.1241
      2  CA        61.5840   61.3170   44.3610 C.3   188  PHE188      0.1605
      3  C         61.6550   62.8110   44.0470 C.2   188  PHE188      0.2264
      4  O         62.7390   63.3940   43.9920 O.2   188  PHE188     -0.2867
      5  CB        60.7040   61.0710   45.5930 C.3   188  PHE188      0.0534
      6  CG        60.3350   59.6030   45.8700 C.ar  188  PHE188     -0.0203
      7  CD1       60.3610   58.6820   44.8440 C.ar  188  PHE188     -0.0042
      8  CD2       59.9290   59.2510   47.1540 C.ar  188  PHE188     -0.0042
      9  CE1       59.9720   57.3900   45.1340 C.ar  188  PHE188     -0.0003
     10  CE2       59.5410   57.9620   47.4280 C.ar  188  PHE188     -0.0003
     11  CZ        59.5680   57.0370   46.3960 C.ar  188  PHE188     -0.0000
     12  N         55.1060   67.5790   48.1790 N.3   194  ALA194     -0.1245
     13  CA        55.5620   66.2120   48.4100 C.3   194  ALA194      0.1562
     14  C         55.9750   66.0100   49.8650 C.2   194  ALA194      0.2260
     15  O         55.8600   64.9080   50.4060 O.2   194  ALA194     -0.2867
     16  CB        56.7230   65.8830   47.4820 C.3   194  ALA194      0.0290
     17  N         52.5910   65.9820   52.0150 N.3   197  SER197     -0.1202
     18  CA        51.8110   64.7550   51.9020 C.3   197  SER197      0.2020
     19  C         52.4500   63.6160   52.6920 C.2   197  SER197      0.2618
     20  O         51.7520   62.7590   53.2330 O.2   197  SER197     -0.2717
     21  CB        51.6650   64.3520   50.4330 C.3   197  SER197      0.2103
     22  OG        52.8980   64.1010   49.7950 O.3   197  SER197     -0.2182
     23  N         53.7800   63.5910   52.7230 N.am  198  TYR198     -0.1975
     24  CA        54.5120   62.5620   53.4540 C.3   198  TYR198      0.1639
     25  C         54.4500   62.8540   54.9520 C.2   198  TYR198      0.2290
     26  O         54.5570   61.9440   55.7770 O.2   198  TYR198     -0.2864
     27  CB        55.9720   62.5080   52.9870 C.3   198  TYR198      0.0560
     28  CG        56.7900   61.3960   53.6160 C.ar  198  TYR198     -0.0198
     29  CD1       56.5740   60.0610   53.2710 C.ar  198  TYR198     -0.0009
     30  CD2       57.7880   61.6800   54.5500 C.ar  198  TYR198     -0.0009
     31  CE1       57.3320   59.0360   53.8400 C.ar  198  TYR198      0.0417
     32  CE2       58.5510   60.6640   55.1230 C.ar  198  TYR198      0.0417
     33  CZ        58.3190   59.3460   54.7640 C.ar  198  TYR198      0.1957
     34  OH        59.0780   58.3410   55.3210 O.3   198  TYR198     -0.2866
     35  N         50.8340   61.8110   55.8570 N.3   201  GLY201     -0.1210
     36  CA        50.6510   60.3760   55.7300 C.3   201  GLY201      0.1956
     37  C         51.2980   59.6180   56.8720 C.2   201  GLY201      0.2611
     38  O         50.8840   58.5050   57.2030 O.2   201  GLY201     -0.2717
     39  N         52.3480   60.2030   57.4420 N.am  202  ALA202     -0.1979
     40  CA        53.0650   59.6010   58.5590 C.3   202  ALA202      0.1597
     41  C         52.3890   59.9640   59.8780 C.2   202  ALA202      0.2287
     42  O         52.4540   59.2040   60.8480 O.2   202  ALA202     -0.2864
     43  CB        54.5160   60.0650   58.5630 C.3   202  ALA202      0.0319
     44  N         49.1780   57.9120   60.1380 N.3   205  MET205     -0.1245
     45  CA        49.4850   56.5120   60.3980 C.3   205  MET205      0.1570
     46  C         49.6210   56.2960   61.9030 C.2   205  MET205      0.2261
     47  O         49.4610   55.1780   62.3990 O.2   205  MET205     -0.2867
     48  CB        50.7860   56.1120   59.6960 C.3   205  MET205      0.0387
     49  CG        50.9500   54.6070   59.7710 C.3   205  MET205      0.0595
     50  SD        52.2100   53.9170   58.7120 S.3   205  MET205     -0.1393
     51  CE        53.6180   54.5110   59.5760 C.3   205  MET205      0.0692
     52  N         44.1520   61.5790   55.3550 N.3   254  LEU254     -0.1245
     53  CA        45.1750   60.7350   54.7460 C.3   254  LEU254      0.1561
     54  C         44.7840   60.3700   53.3170 C.2   254  LEU254      0.2260
     55  O         45.6460   60.1220   52.4720 O.2   254  LEU254     -0.2867
     56  CB        45.3760   59.4620   55.5700 C.3   254  LEU254      0.0270
     57  CG        46.1200   58.3790   54.7980 C.3   254  LEU254      0.0019
     58  CD1       47.5670   58.7920   54.6190 C.3   254  LEU254      0.0001
     59  CD2       46.1240   57.0850   55.5820 C.3   254  LEU254      0.0001
     60  N         47.3760   61.6350   50.3090 N.3   258  LEU258     -0.1245
     61  CA        48.0050   60.6830   49.4000 C.3   258  LEU258      0.1561
     62  C         47.5570   60.9400   47.9640 C.2   258  LEU258      0.2260
     63  O         48.2740   60.6180   47.0130 O.2   258  LEU258     -0.2867
     64  CB        47.6530   59.2500   49.8050 C.3   258  LEU258      0.0270
     65  CG        48.5010   58.1590   49.1610 C.3   258  LEU258      0.0019
     66  CD1       49.8360   58.0860   49.8140 C.3   258  LEU258      0.0001
     67  CD2       47.8610   56.7720   49.2670 C.3   258  LEU258      0.0001
     68  N         49.4120   63.9840   46.6310 N.3   261  ALA261     -0.1231
     69  CA        50.8040   63.7010   46.3020 C.3   261  ALA261      0.1694
     70  C         50.9540   63.4370   44.8060 C.2   261  ALA261      0.2592
     71  O         52.0380   63.6020   44.2430 O.2   261  ALA261     -0.2718
     72  CB        51.3000   62.5060   47.1010 C.3   261  ALA261      0.0304
     73  N         49.8710   62.9820   44.1810 N.am  262  GLY262     -0.1957
     74  CA        49.8920   62.7060   42.7560 C.3   262  GLY262      0.1869
     75  C         49.7670   63.9680   41.9230 C.2   262  GLY262      0.2309
     76  O         49.9540   63.9350   40.7050 O.2   262  GLY262     -0.2863
     77  N         53.6090   65.1730   41.5540 N.3   265  ARG265     -0.1245
     78  CA        54.4280   64.3320   40.6890 C.3   265  ARG265      0.1563
     79  C         54.0000   64.4380   39.2280 C.2   265  ARG265      0.2260
     80  O         54.7300   64.0150   38.3260 O.2   265  ARG265     -0.2867
     81  CB        54.3510   62.8730   41.1470 C.3   265  ARG265      0.0307
     82  CG        54.7600   62.6730   42.5810 C.3   265  ARG265      0.0489
     83  CD        54.5450   61.2340   43.0250 C.3   265  ARG265      0.2205
     84  NE        54.8500   61.1070   44.4440 N.pl3 265  ARG265     -0.0865
     85  CZ        56.0730   60.9610   44.9350 C.cat 265  ARG265      0.5346
     86  NH1       57.1250   60.9060   44.1290 N.pl3 265  ARG265      0.1354
     87  NH2       56.2480   60.9060   46.2460 N.pl3 265  ARG265      0.1354
@<TRIPOS>BOND
     1    80    79    2
     2    79    78    1
     3    78    81    1
     4    78    77    1
     5    76    75    2
     6    81    82    1
     7    75    74    1
     8    82    83    1
     9    74    73    1
    10    83    84    1
    11     4     3    2
    12     3     2    1
    13    86    85    1
    14    73    70   am
    15    71    70    2
    16     2     1    1
    17     2     5    1
    18    84    85    2
    19    70    69    1
    20     7     9   ar
    21     7     6   ar
    22    85    87    1
    23     9    11   ar
    24     5     6    1
    25     6     8   ar
    26    69    68    1
    27    69    72    1
    28    11    10   ar
    29    63    62    2
    30     8    10   ar
    31    16    13    1
    32    62    61    1
    33    12    13    1
    34    13    14    1
    35    65    67    1
    36    65    64    1
    37    65    66    1
    38    61    64    1
    39    61    60    1
    40    22    21    1
    41    14    15    2
    42    21    18    1
    43    18    17    1
    44    18    19    1
    45    55    54    2
    46    19    23   am
    47    19    20    2
    48    23    24    1
    49    27    24    1
    50    27    28    1
    51    29    28   ar
    52    29    31   ar
    53    54    53    1
    54    24    25    1
    55    28    30   ar
    56    31    33   ar
    57    30    32   ar
    58    58    57    1
    59    53    52    1
    60    53    56    1
    61    33    32   ar
    62    33    34    1
    63    57    56    1
    64    57    59    1
    65    25    26    2
    66    36    35    1
    67    36    37    1
    68    37    38    2
    69    37    39   am
    70    39    40    1
    71    40    43    1
    72    40    41    1
    73    50    51    1
    74    50    49    1
    75    48    49    1
    76    48    45    1
    77    41    42    2
    78    44    45    1
    79    45    46    1
    80    46    47    2
