@<TRIPOS>MOLECULE
tmp/1izlC01.pdb
 87 84 0 0 0
SMALL
GASTEIGER

@<TRIPOS>ATOM
      1  N         54.4880   80.6290   56.6070 N.3     3  LEU3       -0.1231
      2  CA        54.8210   80.5200   58.0230 C.3     3  LEU3        0.1693
      3  C         53.6990   81.0670   58.8980 C.2     3  LEU3        0.2592
      4  O         53.5180   80.6240   60.0330 O.2     3  LEU3       -0.2718
      5  CB        56.1240   81.2670   58.3190 C.3     3  LEU3        0.0284
      6  CG        57.4060   80.6400   57.7720 C.3     3  LEU3        0.0019
      7  CD1       58.5560   81.5840   58.0360 C.3     3  LEU3        0.0001
      8  CD2       57.7030   79.3090   58.4140 C.3     3  LEU3        0.0001
      9  N         52.9800   82.0570   58.3760 N.am    4  GLY4       -0.1957
     10  CA        51.8790   82.6570   59.1090 C.3     4  GLY4        0.1869
     11  C         50.6470   81.7720   59.1410 C.2     4  GLY4        0.2309
     12  O         49.7960   81.9120   60.0190 O.2     4  GLY4       -0.2863
     13  N         51.2440   79.4760   62.0940 N.3     7  VAL7       -0.1245
     14  CA        51.1910   80.1450   63.3900 C.3     7  VAL7        0.1561
     15  C         49.7500   80.4310   63.8010 C.2     7  VAL7        0.2260
     16  O         49.3590   80.1730   64.9390 O.2     7  VAL7       -0.2867
     17  CB        51.9720   81.4720   63.3670 C.3     7  VAL7        0.0252
     18  CG1       51.9160   82.1860   64.7130 C.3     7  VAL7        0.0019
     19  CG2       53.4380   81.1700   63.0450 C.3     7  VAL7        0.0019
     20  N         49.6100   87.9060   68.2070 N.3    81  GLY81      -0.1210
     21  CA        50.6360   88.7650   67.6490 C.3    81  GLY81       0.1956
     22  C         51.3850   88.1000   66.5100 C.2    81  GLY81       0.2612
     23  O         52.1730   88.7470   65.8160 O.2    81  GLY81      -0.2717
     24  N         51.1680   86.7980   66.3440 N.am   82  GLY82      -0.1956
     25  CA        51.8280   86.0570   65.2840 C.3    82  GLY82       0.1869
     26  C         51.0750   86.1000   63.9660 C.2    82  GLY82       0.2309
     27  O         51.6660   85.8890   62.9050 O.2    82  GLY82      -0.2863
     28  N         50.2100   88.4270   62.3330 N.3    84  TYR84      -0.1227
     29  CA        50.5360   89.6820   61.6710 C.3    84  TYR84       0.1736
     30  C         51.2360   89.4070   60.3410 C.2    84  TYR84       0.2595
     31  O         51.3770   90.3000   59.5010 O.2    84  TYR84      -0.2718
     32  CB        51.4430   90.5110   62.5800 C.3    84  TYR84       0.0548
     33  CG        51.5800   91.9560   62.1730 C.ar   84  TYR84      -0.0200
     34  CD1       50.5250   92.8500   62.3510 C.ar   84  TYR84      -0.0009
     35  CD2       52.7660   92.4360   61.6220 C.ar   84  TYR84      -0.0009
     36  CE1       50.6480   94.1860   61.9910 C.ar   84  TYR84       0.0417
     37  CE2       52.9010   93.7730   61.2580 C.ar   84  TYR84       0.0417
     38  CZ        51.8370   94.6410   61.4470 C.ar   84  TYR84       0.1957
     39  OH        51.9620   95.9680   61.1020 O.3    84  TYR84      -0.2866
     40  N         51.7090   88.1750   60.1780 N.am   85  HIS85      -0.1975
     41  CA        52.4020   87.7540   58.9660 C.3    85  HIS85       0.1656
     42  C         51.4260   87.3540   57.8610 C.2    85  HIS85       0.2291
     43  O         51.8380   87.0480   56.7400 O.2    85  HIS85      -0.2864
     44  CB        53.3380   86.5850   59.2800 C.3    85  HIS85       0.0771
     45  CG        54.3240   86.2480   58.1770 C.ar   85  HIS85       0.0820
     46  ND1       55.2090   87.1500   57.6960 N.ar   85  HIS85      -0.2267
     47  CD2       54.5320   85.1270   57.4370 C.ar   85  HIS85       0.1154
     48  CE1       55.9470   86.5590   56.7620 C.ar   85  HIS85       0.1986
     49  NE2       55.5900   85.3400   56.5870 N.ar   85  HIS85      -0.2212
     50  N         59.5080   85.1260   52.4870 N.3    93  LEU93      -0.1245
     51  CA        60.8750   85.4670   52.8630 C.3    93  LEU93       0.1561
     52  C         61.7900   84.2580   52.6890 C.2    93  LEU93       0.2260
     53  O         61.3360   83.1700   52.3310 O.2    93  LEU93      -0.2867
     54  CB        60.9190   85.9490   54.3150 C.3    93  LEU93       0.0270
     55  CG        60.7810   87.4300   54.5930 C.3    93  LEU93       0.0019
     56  CD1       60.9450   87.5430   56.1190 C.3    93  LEU93       0.0001
     57  CD2       61.9080   88.1730   53.8950 C.3    93  LEU93       0.0001
     58  N         65.7600   84.7020   53.9550 N.3    95  GLU95      -0.1245
     59  CA        66.8050   84.9970   54.9340 C.3    95  GLU95       0.1567
     60  C         67.9890   84.0310   54.8510 C.2    95  GLU95       0.2260
     61  O         68.2550   83.4480   53.7950 O.2    95  GLU95      -0.2867
     62  CB        66.2230   85.0070   56.3520 C.3    95  GLU95       0.0388
     63  CG        64.9830   85.8800   56.5810 C.3    95  GLU95       0.1160
     64  CD        65.2210   87.3950   56.4330 C.2    95  GLU95       0.3649
     65  OE1       66.3610   87.8340   56.1120 O.co2  95  GLU95      -0.2457
     66  OE2       64.2450   88.1560   56.6650 O.co2  95  GLU95      -0.2457
     67  N         64.1830   72.8100   60.3380 N.3   109  PHE109     -0.1227
     68  CA        64.9170   72.2580   61.4710 C.3   109  PHE109      0.1736
     69  C         64.0130   72.1760   62.6970 C.2   109  PHE109      0.2595
     70  O         64.1830   72.9200   63.6670 O.2   109  PHE109     -0.2718
     71  CB        66.1490   73.1160   61.7710 C.3   109  PHE109      0.0547
     72  CG        65.8250   74.5240   62.1720 C.ar  109  PHE109     -0.0202
     73  CD1       65.4610   75.4660   61.2140 C.ar  109  PHE109     -0.0042
     74  CD2       65.8180   74.8920   63.5160 C.ar  109  PHE109     -0.0042
     75  CE1       65.0810   76.7510   61.5850 C.ar  109  PHE109     -0.0003
     76  CE2       65.4400   76.1800   63.8990 C.ar  109  PHE109     -0.0003
     77  CZ        65.0670   77.1100   62.9310 C.ar  109  PHE109     -0.0000
     78  N         63.0110   71.3080   62.6150 N.am  110  HIS110     -0.1975
     79  CA        62.0640   71.1090   63.7010 C.3   110  HIS110      0.1656
     80  C         62.2300   69.7220   64.3100 C.2   110  HIS110      0.2291
     81  O         61.3510   69.2400   65.0250 O.2   110  HIS110     -0.2864
     82  CB        60.6300   71.2950   63.1980 C.3   110  HIS110      0.0771
     83  CG        60.3150   72.6970   62.7780 C.ar  110  HIS110      0.0820
     84  ND1       59.4350   73.5020   63.4710 N.ar  110  HIS110     -0.2267
     85  CD2       60.7640   73.4420   61.7390 C.ar  110  HIS110      0.1154
     86  CE1       59.3570   74.6770   62.8790 C.ar  110  HIS110      0.1986
     87  NE2       60.1530   74.6680   61.8240 N.ar  110  HIS110     -0.2212
@<TRIPOS>BOND
     1    53    52    2
     2    50    51    1
     3    52    51    1
     4    51    54    1
     5    61    60    2
     6    57    55    1
     7    58    59    1
     8    54    55    1
     9    55    56    1
    10    60    59    1
    11    59    62    1
    12    65    64   ar
    13    62    63    1
    14    64    63    1
    15    64    66   ar
    16    49    48   ar
    17    49    47   ar
    18     1     2    1
    19    43    42    2
    20    48    46   ar
    21    47    45   ar
    22    46    45   ar
    23     6     7    1
    24     6     5    1
    25     6     8    1
    26    42    41    1
    27     2     5    1
    28     2     3    1
    29    45    44    1
    30     9     3   am
    31     9    10    1
    32     3     4    2
    33    41    44    1
    34    41    40    1
    35    10    11    1
    36    11    12    2
    37    31    30    2
    38    40    30   am
    39    67    68    1
    40    30    29    1
    41    39    38    1
    42    73    75   ar
    43    73    72   ar
    44    37    38   ar
    45    37    35   ar
    46    38    36   ar
    47    68    71    1
    48    68    69    1
    49    75    77   ar
    50    35    33   ar
    51    29    28    1
    52    29    32    1
    53    85    87   ar
    54    85    83   ar
    55    71    72    1
    56    87    86   ar
    57    36    34   ar
    58    13    14    1
    59    72    74   ar
    60    33    34   ar
    61    33    32    1
    62    78    69   am
    63    78    79    1
    64    69    70    2
    65    83    82    1
    66    83    84   ar
    67    86    84   ar
    68    27    26    2
    69    77    76   ar
    70    19    17    1
    71    82    79    1
    72    17    14    1
    73    17    18    1
    74    14    15    1
    75    74    76   ar
    76    79    80    1
    77    15    16    2
    78    26    25    1
    79    80    81    2
    80    25    24    1
    81    23    22    2
    82    24    22   am
    83    22    21    1
    84    21    20    1
