@<TRIPOS>MOLECULE
tmp/1izlB11.pdb
 123 115 0 0 0
SMALL
GASTEIGER

@<TRIPOS>ATOM
      1  N         -0.7900   32.0660   19.9900 N.3    30  VAL30      -0.1245
      2  CA        -1.0490   32.4010   21.3850 C.3    30  VAL30       0.1561
      3  C         -2.2410   31.5960   21.8880 C.2    30  VAL30       0.2260
      4  O         -2.4830   31.5070   23.0930 O.2    30  VAL30      -0.2867
      5  CB        -1.3570   33.9000   21.5480 C.3    30  VAL30       0.0252
      6  CG1       -1.9340   34.1840   22.9470 C.3    30  VAL30       0.0019
      7  CG2       -0.1010   34.7270   21.3030 C.3    30  VAL30       0.0019
      8  N         -1.1250   27.6160   23.7480 N.3    34  ALA34      -0.1245
      9  CA        -1.7800   27.6480   25.0490 C.3    34  ALA34       0.1562
     10  C         -3.0060   26.7380   25.0430 C.2    34  ALA34       0.2260
     11  O         -3.4690   26.2980   26.0970 O.2    34  ALA34      -0.2867
     12  CB        -2.1840   29.0740   25.3960 C.3    34  ALA34       0.0290
     13  N         -4.3680   26.1510   35.3230 N.3    60  MET60      -0.1230
     14  CA        -4.5010   27.5700   35.0060 C.3    60  MET60       0.1702
     15  C         -5.1480   27.7840   33.6360 C.2    60  MET60       0.2592
     16  O         -5.7540   28.8280   33.3820 O.2    60  MET60      -0.2718
     17  CB        -3.1310   28.2520   35.0520 C.3    60  MET60       0.0401
     18  CG        -3.2690   29.7590   34.8770 C.3    60  MET60       0.0596
     19  SD        -1.6880   30.5750   34.8620 S.3    60  MET60      -0.1393
     20  CE        -0.8600   29.6180   33.6000 C.3    60  MET60       0.0692
     21  N         -4.9940   26.8000   32.7540 N.am   61  PHE61      -0.1976
     22  CA        -5.5600   26.8610   31.4110 C.3    61  PHE61       0.1639
     23  C         -6.9960   26.3370   31.3760 C.2    61  PHE61       0.2290
     24  O         -7.8490   26.8900   30.6780 O.2    61  PHE61      -0.2864
     25  CB        -4.6930   26.0610   30.4360 C.3    61  PHE61       0.0560
     26  CG        -3.4620   26.7970   29.9850 C.ar   61  PHE61      -0.0200
     27  CD1       -3.2420   28.1280   30.2700 C.ar   61  PHE61      -0.0042
     28  CD2       -2.5380   26.1100   29.2070 C.ar   61  PHE61      -0.0042
     29  CE1       -2.1040   28.8210   29.8310 C.ar   61  PHE61      -0.0003
     30  CE2       -1.3910   26.7720   28.7530 C.ar   61  PHE61      -0.0003
     31  CZ        -1.1510   28.1420   29.0630 C.ar   61  PHE61      -0.0000
     32  N         -9.0290   26.4600   33.7210 N.3    63  LEU63      -0.1231
     33  CA        -9.8530   27.3540   34.5270 C.3    63  LEU63       0.1678
     34  C        -10.6740   28.3010   33.6540 C.2    63  LEU63       0.2434
     35  O        -11.7510   28.7520   34.0470 O.2    63  LEU63      -0.2733
     36  CB        -8.9710   28.1660   35.4780 C.3    63  LEU63       0.0284
     37  CG        -7.9050   29.0730   34.8680 C.3    63  LEU63       0.0019
     38  CD1       -8.4690   30.4060   34.4040 C.3    63  LEU63       0.0001
     39  CD2       -6.7730   29.3090   35.8600 C.3    63  LEU63       0.0001
     40  N        -10.1470   28.6470   32.4700 N.am   64  PRO64      -0.2729
     41  CA       -10.7870   29.5430   31.5010 C.3    64  PRO64       0.1401
     42  C        -11.8650   28.8440   30.6770 C.2    64  PRO64       0.2269
     43  O        -12.6640   29.4980   30.0020 O.2    64  PRO64      -0.2865
     44  CB        -9.6590   30.0100   30.6040 C.3    64  PRO64       0.0296
     45  CG        -8.4020   30.0330   31.4880 C.3    64  PRO64       0.0237
     46  CD        -8.6020   28.7880   32.3690 C.3    64  PRO64       0.0939
     47  N        -16.3220   29.7820   31.0940 N.3    68  ARG68      -0.1245
     48  CA       -17.0490   30.1690   29.8890 C.3    68  ARG68       0.1563
     49  C        -17.8530   29.0200   29.2830 C.2    68  ARG68       0.2260
     50  O        -19.0420   29.1730   28.9880 O.2    68  ARG68      -0.2867
     51  CB       -16.0790   30.7320   28.8460 C.3    68  ARG68       0.0307
     52  CG       -15.8700   32.2440   28.9640 C.3    68  ARG68       0.0489
     53  CD       -14.8960   32.6420   27.8580 C.3    68  ARG68       0.2205
     54  NE       -13.8910   31.5810   27.9460 N.pl3  68  ARG68      -0.0865
     55  CZ       -12.7620   31.4160   27.2660 C.cat  68  ARG68       0.5346
     56  NH1      -12.3850   32.2680   26.3210 N.pl3  68  ARG68       0.1354
     57  NH2      -11.9840   30.3550   27.5330 N.pl3  68  ARG68       0.1354
     58  N         -4.3230   48.3280   27.4680 N.3   232  VAL232     -0.1245
     59  CA        -3.8680   47.0980   28.1060 C.3   232  VAL232      0.1561
     60  C         -3.6050   47.3180   29.5930 C.2   232  VAL232      0.2260
     61  O         -3.6130   46.3700   30.3800 O.2   232  VAL232     -0.2867
     62  CB        -2.5820   46.5670   27.4450 C.3   232  VAL232      0.0252
     63  CG1       -1.9430   45.4670   28.3130 C.3   232  VAL232      0.0019
     64  CG2       -2.8840   46.0450   26.0460 C.3   232  VAL232      0.0019
     65  N         -7.1800   47.1980   31.1920 N.3   235  ALA235     -0.1231
     66  CA        -7.8620   45.9170   31.0500 C.3   235  ALA235      0.1694
     67  C         -7.2180   44.8430   31.9210 C.2   235  ALA235      0.2591
     68  O         -7.8730   43.8710   32.3040 O.2   235  ALA235     -0.2718
     69  CB        -7.8620   45.4830   29.5910 C.3   235  ALA235      0.0304
     70  N         -5.9270   45.0020   32.1920 N.am  236  ALA236     -0.1980
     71  CA        -5.1840   44.0530   33.0140 C.3   236  ALA236      0.1597
     72  C         -5.3280   44.3720   34.4990 C.2   236  ALA236      0.2287
     73  O         -5.3680   43.4680   35.3330 O.2   236  ALA236     -0.2864
     74  CB        -3.7160   44.0490   32.6160 C.3   236  ALA236      0.0319
     75  N         -8.7450   43.1640   35.4950 N.3   239  VAL239     -0.1245
     76  CA        -8.8470   41.7090   35.4760 C.3   239  VAL239      0.1561
     77  C         -8.2190   41.1000   36.7260 C.2   239  VAL239      0.2260
     78  O         -8.7720   40.1700   37.3170 O.2   239  VAL239     -0.2867
     79  CB        -8.1600   41.1150   34.2320 C.3   239  VAL239      0.0252
     80  CG1       -7.6210   39.6580   34.3250 C.3   239  VAL239      0.0019
     81  CG2       -9.0180   41.3110   32.9840 C.3   239  VAL239      0.0019
     82  N         -2.3410   34.5340   38.4610 N.3   294  PHE294     -0.1241
     83  CA        -3.1580   35.5980   37.8870 C.3   294  PHE294      0.1605
     84  C         -2.6100   36.9560   38.3090 C.2   294  PHE294      0.2264
     85  O         -2.6150   37.9090   37.5280 O.2   294  PHE294     -0.2867
     86  CB        -4.6110   35.4610   38.3440 C.3   294  PHE294      0.0534
     87  CG        -5.4550   34.5410   37.5310 C.ar  294  PHE294     -0.0203
     88  CD1       -4.9600   33.5470   36.6950 C.ar  294  PHE294     -0.0042
     89  CD2       -6.8780   34.5820   37.7300 C.ar  294  PHE294     -0.0042
     90  CE1       -5.7970   32.7320   35.9530 C.ar  294  PHE294     -0.0003
     91  CE2       -7.6910   33.7180   37.0630 C.ar  294  PHE294     -0.0003
     92  CZ        -7.1780   32.8010   36.1830 C.ar  294  PHE294     -0.0000
     93  N          0.6420   38.2030   36.4820 N.3   297  ALA297     -0.1245
     94  CA         0.4820   38.9000   35.2120 C.3   297  ALA297      0.1562
     95  C          0.2910   40.3950   35.4490 C.2   297  ALA297      0.2260
     96  O          0.5050   41.2050   34.5460 O.2   297  ALA297     -0.2867
     97  CB        -0.7060   38.3320   34.4480 C.3   297  ALA297      0.0290
     98  N          3.6960   41.8930   35.5260 N.3   300  VAL300     -0.1231
     99  CA         4.3190   41.8240   34.2100 C.3   300  VAL300      0.1692
    100  C          3.6450   42.7750   33.2230 C.2   300  VAL300      0.2592
    101  O          4.1910   43.0640   32.1560 O.2   300  VAL300     -0.2718
    102  CB         4.2610   40.3910   33.6420 C.3   300  VAL300      0.0266
    103  CG1        4.9000   40.3030   32.2600 C.3   300  VAL300      0.0020
    104  CG2        5.0280   39.4600   34.5850 C.3   300  VAL300      0.0020
    105  N          2.4420   43.2240   33.5710 N.am  301  PHE301     -0.1976
    106  CA         1.6790   44.1410   32.7310 C.3   301  PHE301      0.1639
    107  C          2.1600   45.5770   32.9150 C.2   301  PHE301      0.2290
    108  O          2.1870   46.3560   31.9630 O.2   301  PHE301     -0.2864
    109  CB         0.1870   44.0480   33.0610 C.3   301  PHE301      0.0560
    110  CG        -0.6030   43.1760   32.0800 C.ar  301  PHE301     -0.0200
    111  CD1       -1.0630   43.7080   30.9070 C.ar  301  PHE301     -0.0042
    112  CD2       -0.7770   41.8260   32.3160 C.ar  301  PHE301     -0.0042
    113  CE1       -1.6760   42.8970   29.9690 C.ar  301  PHE301     -0.0003
    114  CE2       -1.5280   41.0650   31.4630 C.ar  301  PHE301     -0.0003
    115  CZ        -1.9780   41.5710   30.2640 C.ar  301  PHE301     -0.0000
    116  N          5.2380   46.5140   30.8310 N.3   304  LEU304     -0.1245
    117  CA         5.0910   46.6700   29.3880 C.3   304  LEU304      0.1561
    118  C          4.0700   47.7490   29.0280 C.2   304  LEU304      0.2260
    119  O          3.7970   47.9860   27.8480 O.2   304  LEU304     -0.2867
    120  CB         4.6880   45.3360   28.7510 C.3   304  LEU304      0.0270
    121  CG         5.7600   44.2470   28.7180 C.3   304  LEU304      0.0019
    122  CD1        5.1390   42.9740   28.1920 C.3   304  LEU304      0.0001
    123  CD2        6.9250   44.6270   27.8420 C.3   304  LEU304      0.0001
@<TRIPOS>BOND
     1     1     2    1
     2     7     5    1
     3     2     5    1
     4     2     3    1
     5     5     6    1
     6     3     4    2
     7     8     9    1
     8    10     9    1
     9    10    11    2
    10     9    12    1
    11    64    62    1
    12    56    55    1
    13    55    57    1
    14    55    54    2
    15    62    59    1
    16    62    63    1
    17    58    59    1
    18   123   121    1
    19   119   118    2
    20    53    54    1
    21    53    52    1
    22    59    60    1
    23   122   121    1
    24   121   120    1
    25   120   117    1
    26    30    31   ar
    27    30    28   ar
    28    51    52    1
    29    51    48    1
    30    50    49    2
    31   118   117    1
    32    31    29   ar
    33    28    26   ar
    34    49    48    1
    35   117   116    1
    36    69    66    1
    37    60    61    2
    38    29    27   ar
    39    48    47    1
    40   113   115   ar
    41   113   111   ar
    42    26    27   ar
    43    26    25    1
    44    43    42    2
    45   115   114   ar
    46    25    22    1
    47    44    45    1
    48    44    41    1
    49    42    41    1
    50    24    23    2
    51   111   110   ar
    52    66    65    1
    53    66    67    1
    54    23    22    1
    55    22    21    1
    56   114   112   ar
    57    45    46    1
    58    41    40    1
    59    67    70   am
    60    67    68    2
    61   108   107    2
    62   110   112   ar
    63   110   109    1
    64   101   100    2
    65    70    71    1
    66   103   102    1
    67    46    40    1
    68    40    34   am
    69    74    71    1
    70   106   107    1
    71   106   109    1
    72   106   105    1
    73    21    15   am
    74    81    79    1
    75    71    72    1
    76   100   105   am
    77   100    99    1
    78    16    15    2
    79    20    19    1
    80    15    14    1
    81   102    99    1
    82   102   104    1
    83    34    35    2
    84    34    33    1
    85    32    33    1
    86    99    98    1
    87    79    80    1
    88    79    76    1
    89    38    37    1
    90    97    94    1
    91    72    73    2
    92    33    36    1
    93    96    95    2
    94    19    18    1
    95    37    36    1
    96    37    39    1
    97    18    17    1
    98    14    17    1
    99    14    13    1
   100    94    95    1
   101    94    93    1
   102    76    75    1
   103    76    77    1
   104    90    92   ar
   105    90    88   ar
   106    92    91   ar
   107    88    87   ar
   108    77    78    2
   109    91    89   ar
   110    85    84    2
   111    87    89   ar
   112    87    86    1
   113    83    84    1
   114    83    86    1
   115    83    82    1
