@<TRIPOS>MOLECULE
tmp/1izlC11.pdb
 100 99 0 0 0
SMALL
GASTEIGER

@<TRIPOS>ATOM
      1  N         53.3490   81.4170   54.2400 N.3     2  LEU2       -0.1231
      2  CA        53.4610   79.9880   54.5070 C.3     2  LEU2        0.1693
      3  C         53.7230   79.7340   55.9890 C.2     2  LEU2        0.2591
      4  O         53.2820   78.7260   56.5440 O.2     2  LEU2       -0.2718
      5  CB        54.5870   79.3800   53.6700 C.3     2  LEU2        0.0284
      6  CG        54.3350   79.2740   52.1660 C.3     2  LEU2        0.0019
      7  CD1       55.6000   78.7910   51.4980 C.3     2  LEU2        0.0001
      8  CD2       53.2120   78.3210   51.8470 C.3     2  LEU2        0.0001
      9  N         54.4880   80.6290   56.6070 N.am    3  LEU3       -0.1980
     10  CA        54.8210   80.5200   58.0230 C.3     3  LEU3        0.1596
     11  C         53.6990   81.0670   58.8980 C.2     3  LEU3        0.2287
     12  O         53.5180   80.6240   60.0330 O.2     3  LEU3       -0.2864
     13  CB        56.1240   81.2670   58.3190 C.3     3  LEU3        0.0297
     14  CG        57.4060   80.6400   57.7720 C.3     3  LEU3        0.0022
     15  CD1       58.5560   81.5840   58.0360 C.3     3  LEU3        0.0001
     16  CD2       57.7030   79.3090   58.4140 C.3     3  LEU3        0.0001
     17  N         50.7950   78.6570   59.5580 N.3     6  HIS6       -0.1226
     18  CA        51.1120   77.6230   60.5340 C.3     6  HIS6        0.1752
     19  C         51.0250   78.1720   61.9560 C.2     6  HIS6        0.2595
     20  O         50.8050   77.4170   62.9070 O.2     6  HIS6       -0.2718
     21  CB        52.5140   77.0680   60.2790 C.3     6  HIS6        0.0759
     22  CG        52.7770   75.7670   60.9600 C.ar    6  HIS6        0.0818
     23  ND1       52.5010   74.5520   60.3800 N.ar    6  HIS6       -0.2268
     24  CD2       53.3330   75.4920   62.1600 C.ar    6  HIS6        0.1154
     25  CE1       52.9070   73.5780   61.1720 C.ar    6  HIS6        0.1986
     26  NE2       53.4190   74.1210   62.2600 N.ar    6  HIS6       -0.2212
     27  N         51.2440   79.4760   62.0940 N.am    7  VAL7       -0.1980
     28  CA        51.1910   80.1450   63.3900 C.3     7  VAL7        0.1595
     29  C         49.7500   80.4310   63.8010 C.2     7  VAL7        0.2287
     30  O         49.3590   80.1730   64.9390 O.2     7  VAL7       -0.2864
     31  CB        51.9720   81.4720   63.3670 C.3     7  VAL7        0.0276
     32  CG1       51.9160   82.1860   64.7130 C.3     7  VAL7        0.0022
     33  CG2       53.4380   81.1700   63.0450 C.3     7  VAL7        0.0022
     34  N         48.2110   77.1390   64.8470 N.3    10  ALA10      -0.1245
     35  CA        48.6630   76.5660   66.1090 C.3    10  ALA10       0.1562
     36  C         48.1000   77.3430   67.2960 C.2    10  ALA10       0.2260
     37  O         47.9850   76.8060   68.3990 O.2    10  ALA10      -0.2867
     38  CB        50.1850   76.5500   66.1630 C.3    10  ALA10       0.0290
     39  N         63.2910   80.0990   51.3160 N.3    97  TRP97      -0.1241
     40  CA        62.0740   79.3450   50.9000 C.3    97  TRP97       0.1605
     41  C         61.7220   79.6300   49.4410 C.2    97  TRP97       0.2264
     42  O         60.8160   80.4140   49.1460 O.2    97  TRP97      -0.2867
     43  CB        60.8930   79.7020   51.8070 C.3    97  TRP97       0.0550
     44  CG        61.0390   79.2750   53.2100 C.ar   97  TRP97       0.0003
     45  CD1       61.1840   80.1200   54.2490 C.ar   97  TRP97       0.0946
     46  CD2       60.9870   77.9340   53.7630 C.ar   97  TRP97       0.0152
     47  NE1       61.2630   79.4130   55.4260 N.ar   97  TRP97      -0.2442
     48  CE2       61.1370   78.0680   55.1700 C.ar   97  TRP97       0.0810
     49  CE3       60.8030   76.6410   53.2190 C.ar   97  TRP97       0.0012
     50  CZ2       61.1320   76.9690   56.0300 C.ar   97  TRP97       0.0191
     51  CZ3       60.7630   75.5630   54.0790 C.ar   97  TRP97       0.0001
     52  CH2       60.9570   75.7120   55.4650 C.ar   97  TRP97       0.0015
     53  N         66.6270   73.7020   55.9390 N.3   107  LEU107     -0.1231
     54  CA        65.4060   74.2970   56.4710 C.3   107  LEU107      0.1693
     55  C         64.5250   73.2540   57.1490 C.2   107  LEU107      0.2593
     56  O         64.7610   72.0510   57.0340 O.2   107  LEU107     -0.2718
     57  CB        64.6190   74.9880   55.3560 C.3   107  LEU107      0.0284
     58  CG        65.0590   76.3010   54.8880 C.3   107  LEU107      0.0019
     59  CD1       64.0800   76.9180   53.8910 C.3   107  LEU107      0.0001
     60  CD2       65.3780   77.2750   56.0010 C.3   107  LEU107      0.0001
     61  N         63.4920   73.7280   57.8380 N.am  108  GLY108     -0.1942
     62  CA        62.5860   72.8280   58.5270 C.3   108  GLY108      0.2014
     63  C         63.2590   72.1130   59.6790 C.2   108  GLY108      0.2639
     64  O         62.9320   70.9630   59.9800 O.2   108  GLY108     -0.2714
     65  N         64.1830   72.8100   60.3380 N.am  109  PHE109     -0.1959
     66  CA        64.9170   72.2580   61.4710 C.3   109  PHE109      0.1771
     67  C         64.0130   72.1760   62.6970 C.2   109  PHE109      0.2619
     68  O         64.1830   72.9200   63.6670 O.2   109  PHE109     -0.2715
     69  CB        66.1490   73.1160   61.7710 C.3   109  PHE109      0.0574
     70  CG        65.8250   74.5240   62.1720 C.ar  109  PHE109     -0.0200
     71  CD1       65.4610   75.4660   61.2140 C.ar  109  PHE109     -0.0042
     72  CD2       65.8180   74.8920   63.5160 C.ar  109  PHE109     -0.0042
     73  CE1       65.0810   76.7510   61.5850 C.ar  109  PHE109     -0.0003
     74  CE2       65.4400   76.1800   63.8990 C.ar  109  PHE109     -0.0003
     75  CZ        65.0670   77.1100   62.9310 C.ar  109  PHE109     -0.0000
     76  N         63.0110   71.3080   62.6150 N.am  110  HIS110     -0.1973
     77  CA        62.0640   71.1090   63.7010 C.3   110  HIS110      0.1656
     78  C         62.2300   69.7220   64.3100 C.2   110  HIS110      0.2291
     79  O         61.3510   69.2400   65.0250 O.2   110  HIS110     -0.2864
     80  CB        60.6300   71.2950   63.1980 C.3   110  HIS110      0.0771
     81  CG        60.3150   72.6970   62.7780 C.ar  110  HIS110      0.0820
     82  ND1       59.4350   73.5020   63.4710 N.ar  110  HIS110     -0.2267
     83  CD2       60.7640   73.4420   61.7390 C.ar  110  HIS110      0.1154
     84  CE1       59.3570   74.6770   62.8790 C.ar  110  HIS110      0.1986
     85  NE2       60.1530   74.6680   61.8240 N.ar  110  HIS110     -0.2212
     86  N         63.8040   70.4360   67.6400 N.3   113  VAL113     -0.1231
     87  CA        62.8470   71.2050   68.4260 C.3   113  VAL113      0.1692
     88  C         61.7380   70.2900   68.9360 C.2   113  VAL113      0.2591
     89  O         61.1490   70.5420   69.9910 O.2   113  VAL113     -0.2718
     90  CB        62.2190   72.3390   67.5940 C.3   113  VAL113      0.0266
     91  CG1       61.2080   73.1440   68.4040 C.3   113  VAL113      0.0020
     92  CG2       63.3330   73.2860   67.1400 C.3   113  VAL113      0.0020
     93  N         61.4220   69.2660   68.1480 N.am  114  LEU114     -0.1980
     94  CA        60.3920   68.2960   68.5060 C.3   114  LEU114      0.1596
     95  C         61.0100   67.1230   69.2590 C.2   114  LEU114      0.2287
     96  O         60.3100   66.3950   69.9690 O.2   114  LEU114     -0.2864
     97  CB        59.6770   67.7880   67.2520 C.3   114  LEU114      0.0297
     98  CG        58.3730   67.0380   67.4980 C.3   114  LEU114      0.0022
     99  CD1       57.2770   67.9940   67.8170 C.3   114  LEU114      0.0001
    100  CD2       57.9260   66.2140   66.2880 C.3   114  LEU114      0.0001
@<TRIPOS>BOND
     1    42    41    2
     2    41    40    1
     3    40    39    1
     4    40    43    1
     5     7     6    1
     6    43    44    1
     7     8     6    1
     8     6     5    1
     9    44    46   ar
    10    44    45   ar
    11    49    46   ar
    12    49    51   ar
    13     5     2    1
    14    46    48   ar
    15    59    58    1
    16    51    52   ar
    17     1     2    1
    18    45    47   ar
    19     2     3    1
    20    58    57    1
    21    58    60    1
    22    48    47   ar
    23    48    50   ar
    24    57    54    1
    25    52    50   ar
    26    53    54    1
    27     3     4    2
    28     3     9   am
    29    54    55    1
    30     9    10    1
    31    56    55    2
    32    55    61   am
    33    14    15    1
    34    14    13    1
    35    14    16    1
    36    61    62    1
    37    10    13    1
    38    10    11    1
    39    62    63    1
    40    11    12    2
    41    17    18    1
    42    63    64    2
    43    63    65   am
    44    21    18    1
    45    21    22    1
    46    65    66    1
    47    23    22   ar
    48    23    25   ar
    49    18    19    1
    50    22    24   ar
    51    25    26   ar
    52    71    73   ar
    53    71    70   ar
    54    66    69    1
    55    66    67    1
    56    73    75   ar
    57    83    85   ar
    58    83    81   ar
    59    69    70    1
    60    85    84   ar
    61    19    27   am
    62    19    20    2
    63    27    28    1
    64    24    26   ar
    65    70    72   ar
    66    76    67   am
    67    76    77    1
    68    67    68    2
    69    81    80    1
    70    81    82   ar
    71    84    82   ar
    72    75    74   ar
    73    33    31    1
    74    80    77    1
    75    31    28    1
    76    31    32    1
    77    28    29    1
    78    72    74   ar
    79    77    78    1
    80    29    30    2
    81    78    79    2
    82    34    35    1
    83    35    38    1
    84    35    36    1
    85   100    98    1
    86    92    90    1
    87    97    98    1
    88    97    94    1
    89    36    37    2
    90    98    99    1
    91    90    91    1
    92    90    87    1
    93    86    87    1
    94    93    94    1
    95    93    88   am
    96    87    88    1
    97    94    95    1
    98    88    89    2
    99    95    96    2
