@<TRIPOS>MOLECULE
tmp/1izlB09.pdb
 125 124 0 0 0
SMALL
GASTEIGER

@<TRIPOS>ATOM
      1  N         -0.6120   27.3220   21.0980 N.3    33  TRP33      -0.1227
      2  CA         0.3820   26.8090   22.0340 C.3    33  TRP33       0.1737
      3  C         -0.1980   26.7150   23.4410 C.2    33  TRP33       0.2595
      4  O          0.2220   25.8750   24.2400 O.2    33  TRP33      -0.2718
      5  CB         1.6290   27.6960   22.0410 C.3    33  TRP33       0.0564
      6  CG         2.6020   27.3830   20.9440 C.ar   33  TRP33       0.0003
      7  CD1        2.9310   28.1800   19.8820 C.ar   33  TRP33       0.0946
      8  CD2        3.3880   26.1930   20.8070 C.ar   33  TRP33       0.0152
      9  NE1        3.8730   27.5610   19.0960 N.ar   33  TRP33      -0.2442
     10  CE2        4.1720   26.3380   19.6410 C.ar   33  TRP33       0.0810
     11  CE3        3.5080   25.0140   21.5590 C.ar   33  TRP33       0.0012
     12  CZ2        5.0630   25.3500   19.2070 C.ar   33  TRP33       0.0191
     13  CZ3        4.3940   24.0330   21.1280 C.ar   33  TRP33       0.0001
     14  CH2        5.1600   24.2080   19.9620 C.ar   33  TRP33       0.0015
     15  N         -1.1250   27.6160   23.7480 N.am   34  ALA34      -0.1980
     16  CA        -1.7800   27.6480   25.0490 C.3    34  ALA34       0.1597
     17  C         -3.0060   26.7380   25.0430 C.2    34  ALA34       0.2287
     18  O         -3.4690   26.2980   26.0970 O.2    34  ALA34      -0.2864
     19  CB        -2.1840   29.0740   25.3960 C.3    34  ALA34       0.0319
     20  N         -1.5960   22.9260   25.0570 N.3    37  MET37      -0.1245
     21  CA        -1.0300   22.5800   26.3560 C.3    37  MET37       0.1570
     22  C         -2.1080   22.5280   27.4390 C.2    37  MET37       0.2261
     23  O         -1.8200   22.2280   28.6000 O.2    37  MET37      -0.2867
     24  CB         0.0710   23.5740   26.7370 C.3    37  MET37       0.0387
     25  CG         1.3420   23.4450   25.9040 C.3    37  MET37       0.0595
     26  SD         2.2520   21.9240   26.2500 S.3    37  MET37      -0.1393
     27  CE         3.2880   22.4550   27.6210 C.3    37  MET37       0.0692
     28  N         -1.3450   18.8670   29.6480 N.3    41  GLU41      -0.1231
     29  CA        -0.8100   19.0170   30.9990 C.3    41  GLU41       0.1699
     30  C         -1.8640   19.5310   31.9820 C.2    41  GLU41       0.2592
     31  O         -1.5390   19.9020   33.1140 O.2    41  GLU41      -0.2718
     32  CB         0.3920   19.9660   30.9830 C.3    41  GLU41       0.0402
     33  CG         1.6690   19.3010   30.4960 C.3    41  GLU41       0.1161
     34  CD         2.2690   18.3410   31.5090 C.2    41  GLU41       0.3649
     35  OE1        1.9740   18.4430   32.7210 O.co2  41  GLU41      -0.2457
     36  OE2        3.0570   17.4650   31.0870 O.co2  41  GLU41      -0.2457
     37  N         -3.1170   19.5570   31.5420 N.am   42  LEU42      -0.1980
     38  CA        -4.2210   20.0210   32.3760 C.3    42  LEU42       0.1596
     39  C         -5.3920   19.0520   32.2560 C.2    42  LEU42       0.2287
     40  O         -6.0110   18.6780   33.2550 O.2    42  LEU42      -0.2864
     41  CB        -4.6560   21.4260   31.9510 C.3    42  LEU42       0.0297
     42  CG        -4.0170   22.7210   32.3720 C.3    42  LEU42       0.0022
     43  CD1       -3.0980   22.5840   33.5870 C.3    42  LEU42       0.0001
     44  CD2       -3.4620   23.3960   31.1440 C.3    42  LEU42       0.0001
     45  N         -6.2830   23.2440   36.3690 N.3    59  GLY59      -0.1210
     46  CA        -5.1470   23.8960   35.7410 C.3    59  GLY59       0.1956
     47  C         -5.4250   25.3490   35.4060 C.2    59  GLY59       0.2612
     48  O         -6.5790   25.7410   35.2260 O.2    59  GLY59      -0.2717
     49  N         -4.3680   26.1510   35.3230 N.am   60  MET60      -0.1965
     50  CA        -4.5010   27.5700   35.0060 C.3    60  MET60       0.1736
     51  C         -5.1480   27.7840   33.6360 C.2    60  MET60       0.2616
     52  O         -5.7540   28.8280   33.3820 O.2    60  MET60      -0.2715
     53  CB        -3.1310   28.2520   35.0520 C.3    60  MET60       0.0427
     54  CG        -3.2690   29.7590   34.8770 C.3    60  MET60       0.0599
     55  SD        -1.6880   30.5750   34.8620 S.3    60  MET60      -0.1393
     56  CE        -0.8600   29.6180   33.6000 C.3    60  MET60       0.0692
     57  N         -4.9940   26.8000   32.7540 N.am   61  PHE61      -0.1974
     58  CA        -5.5600   26.8610   31.4110 C.3    61  PHE61       0.1639
     59  C         -6.9960   26.3370   31.3760 C.2    61  PHE61       0.2290
     60  O         -7.8490   26.8900   30.6780 O.2    61  PHE61      -0.2864
     61  CB        -4.6930   26.0610   30.4360 C.3    61  PHE61       0.0560
     62  CG        -3.4620   26.7970   29.9850 C.ar   61  PHE61      -0.0200
     63  CD1       -3.2420   28.1280   30.2700 C.ar   61  PHE61      -0.0042
     64  CD2       -2.5380   26.1100   29.2070 C.ar   61  PHE61      -0.0042
     65  CE1       -2.1040   28.8210   29.8310 C.ar   61  PHE61      -0.0003
     66  CE2       -1.3910   26.7720   28.7530 C.ar   61  PHE61      -0.0003
     67  CZ        -1.1510   28.1420   29.0630 C.ar   61  PHE61      -0.0000
     68  N          1.1970   27.4780   47.8180 N.3   287  ARG287     -0.1245
     69  CA         0.9830   28.6800   47.0190 C.3   287  ARG287      0.1563
     70  C         -0.4150   28.7210   46.4060 C.2   287  ARG287      0.2260
     71  O         -1.2600   27.8750   46.7000 O.2   287  ARG287     -0.2867
     72  CB         2.0400   28.7720   45.9130 C.3   287  ARG287      0.0307
     73  CG         2.0570   27.6170   44.9890 C.3   287  ARG287      0.0489
     74  CD         3.2130   27.9440   44.1000 C.3   287  ARG287      0.2205
     75  NE         3.1970   27.0030   42.9920 N.pl3 287  ARG287     -0.0865
     76  CZ         4.2650   26.3790   42.5100 C.cat 287  ARG287      0.5346
     77  NH1        5.4820   26.8140   42.9030 N.pl3 287  ARG287      0.1354
     78  NH2        4.1040   25.5250   41.4880 N.pl3 287  ARG287      0.1354
     79  N         -2.5880   28.5690   43.0260 N.3   289  SER289     -0.1217
     80  CA        -2.5420   28.1090   41.6390 C.3   289  SER289      0.1889
     81  C         -3.3550   29.0090   40.7150 C.2   289  SER289      0.2288
     82  O         -3.0720   29.1090   39.5210 O.2   289  SER289     -0.2866
     83  CB        -3.0580   26.6720   41.5410 C.3   289  SER289      0.2089
     84  OG        -3.0920   26.1860   40.2940 O.3   289  SER289     -0.2183
     85  N         -0.8930   32.8780   40.0190 N.3   293  TRP293     -0.1227
     86  CA        -0.4280   33.0520   38.6490 C.3   293  TRP293      0.1737
     87  C         -1.1760   34.1730   37.9310 C.2   293  TRP293      0.2595
     88  O         -0.7190   34.6760   36.9010 O.2   293  TRP293     -0.2718
     89  CB        -0.5700   31.7410   37.8780 C.3   293  TRP293      0.0564
     90  CG         0.3740   30.6780   38.3460 C.ar  293  TRP293      0.0003
     91  CD1        0.1810   29.8030   39.3790 C.ar  293  TRP293      0.0946
     92  CD2        1.6600   30.3770   37.8000 C.ar  293  TRP293      0.0152
     93  NE1        1.2690   28.9740   39.5080 N.ar  293  TRP293     -0.2442
     94  CE2        2.1950   29.3060   38.5500 C.ar  293  TRP293      0.0810
     95  CE3        2.4190   30.9080   36.7470 C.ar  293  TRP293      0.0012
     96  CZ2        3.4510   28.7520   38.2810 C.ar  293  TRP293      0.0191
     97  CZ3        3.6670   30.3590   36.4800 C.ar  293  TRP293      0.0001
     98  CH2        4.1700   29.2930   37.2440 C.ar  293  TRP293      0.0015
     99  N         -2.3410   34.5340   38.4610 N.am  294  PHE294     -0.1976
    100  CA        -3.1580   35.5980   37.8870 C.3   294  PHE294      0.1639
    101  C         -2.6100   36.9560   38.3090 C.2   294  PHE294      0.2290
    102  O         -2.6150   37.9090   37.5280 O.2   294  PHE294     -0.2864
    103  CB        -4.6110   35.4610   38.3440 C.3   294  PHE294      0.0560
    104  CG        -5.4550   34.5410   37.5310 C.ar  294  PHE294     -0.0200
    105  CD1       -4.9600   33.5470   36.6950 C.ar  294  PHE294     -0.0042
    106  CD2       -6.8780   34.5820   37.7300 C.ar  294  PHE294     -0.0042
    107  CE1       -5.7970   32.7320   35.9530 C.ar  294  PHE294     -0.0003
    108  CE2       -7.6910   33.7180   37.0630 C.ar  294  PHE294     -0.0003
    109  CZ        -7.1780   32.8010   36.1830 C.ar  294  PHE294     -0.0000
    110  N          0.4120   37.4440   39.0490 N.3   296  PHE296     -0.1227
    111  CA         1.7690   37.5100   38.5140 C.3   296  PHE296      0.1736
    112  C          1.7600   38.2840   37.1980 C.2   296  PHE296      0.2595
    113  O          2.7560   38.9100   36.8270 O.2   296  PHE296     -0.2718
    114  CB         2.3200   36.0970   38.2890 C.3   296  PHE296      0.0547
    115  CG         3.7540   36.0660   37.8290 C.ar  296  PHE296     -0.0202
    116  CD1        4.7900   36.3450   38.7160 C.ar  296  PHE296     -0.0042
    117  CD2        4.0680   35.7570   36.5090 C.ar  296  PHE296     -0.0042
    118  CE1        6.1180   36.3160   38.2960 C.ar  296  PHE296     -0.0003
    119  CE2        5.3920   35.7250   36.0780 C.ar  296  PHE296     -0.0003
    120  CZ         6.4190   36.0050   36.9740 C.ar  296  PHE296     -0.0000
    121  N          0.6420   38.2030   36.4820 N.am  297  ALA297     -0.1980
    122  CA         0.4820   38.9000   35.2120 C.3   297  ALA297      0.1597
    123  C          0.2910   40.3950   35.4490 C.2   297  ALA297      0.2287
    124  O          0.5050   41.2050   34.5460 O.2   297  ALA297     -0.2864
    125  CB        -0.7060   38.3320   34.4480 C.3   297  ALA297      0.0319
@<TRIPOS>BOND
     1     9    10   ar
     2     9     7   ar
     3    12    10   ar
     4    12    14   ar
     5    10     8   ar
     6     7     6   ar
     7    14    13   ar
     8     8     6   ar
     9     8    11   ar
    10     6     5    1
    11     1     2    1
    12    13    11   ar
    13     2     5    1
    14     2     3    1
    15     3    15   am
    16     3     4    2
    17    15    16    1
    18    17    16    1
    19    17    18    2
    20    16    19    1
    21    20    21    1
    22    25    26    1
    23    25    24    1
    24    26    27    1
    25    21    24    1
    26    21    22    1
    27    22    23    2
    28    66    67   ar
    29    66    64   ar
    30    67    65   ar
    31    64    62   ar
    32    28    29    1
    33    65    63   ar
    34    62    63   ar
    35    62    61    1
    36    61    58    1
    37    33    32    1
    38    33    34    1
    39    60    59    2
    40    32    29    1
    41    29    30    1
    42    36    34   ar
    43    44    42    1
    44    59    58    1
    45    58    57    1
    46    34    35   ar
    47    37    30   am
    48    37    38    1
    49    41    42    1
    50    41    38    1
    51    30    31    2
    52    39    38    1
    53    39    40    2
    54    42    43    1
    55    57    51   am
    56    52    51    2
    57    56    55    1
    58    51    50    1
    59   125   122    1
    60   124   123    2
    61    55    54    1
    62    54    53    1
    63    50    53    1
    64    50    49    1
    65   122   123    1
    66   122   121    1
    67    48    47    2
    68    49    47   am
    69    47    46    1
    70    46    45    1
    71   107   109   ar
    72   107   105   ar
    73   119   117   ar
    74   119   120   ar
    75   109   108   ar
    76    97    95   ar
    77    97    98   ar
    78   121   112   am
    79   117   115   ar
    80   105   104   ar
    81    95    92   ar
    82   113   112    2
    83    88    87    2
    84   120   118   ar
    85   108   106   ar
    86   112   111    1
    87    98    96   ar
    88   102   101    2
    89   104   106   ar
    90   104   103    1
    91    92    90   ar
    92    92    94   ar
    93   115   114    1
    94   115   116   ar
    95    89    90    1
    96    89    86    1
    97   100   101    1
    98   100   103    1
    99   100    99    1
   100    87    99   am
   101    87    86    1
   102    96    94   ar
   103   114   111    1
   104   118   116   ar
   105    90    91   ar
   106   111   110    1
   107    94    93   ar
   108    86    85    1
   109    91    93   ar
   110    82    81    2
   111    84    83    1
   112    81    80    1
   113    78    76    1
   114    83    80    1
   115    80    79    1
   116    76    77    1
   117    76    75    2
   118    75    74    1
   119    74    73    1
   120    73    72    1
   121    72    69    1
   122    70    71    2
   123    70    69    1
   124    69    68    1
