@<TRIPOS>MOLECULE
tmp/1izlD03.pdb
 88 81 0 0 0
SMALL
GASTEIGER

@<TRIPOS>ATOM
      1  N          6.2780   64.8190   35.5430 N.3    76  GLY76      -0.1225
      2  CA         7.7200   64.7520   35.3880 C.3    76  GLY76       0.1811
      3  C          8.1530   64.4560   33.9650 C.2    76  GLY76       0.2280
      4  O          8.4580   65.3690   33.1980 O.2    76  GLY76      -0.2866
      5  N          7.4080   66.5980   30.4080 N.3    80  ARG80      -0.1245
      6  CA         8.6160   67.0510   29.7240 C.3    80  ARG80       0.1563
      7  C          8.7430   66.4850   28.3120 C.2    80  ARG80       0.2260
      8  O          9.4010   67.0790   27.4610 O.2    80  ARG80      -0.2867
      9  CB         9.8560   66.6860   30.5430 C.3    80  ARG80       0.0307
     10  CG        11.1460   67.2440   29.9420 C.3    80  ARG80       0.0489
     11  CD        12.3550   66.9680   30.8230 C.3    80  ARG80       0.2205
     12  NE        12.5710   65.5390   31.0140 N.pl3  80  ARG80      -0.0865
     13  CZ        12.3450   64.8830   32.1470 C.cat  80  ARG80       0.5346
     14  NH1       11.8940   65.5210   33.2220 N.pl3  80  ARG80       0.1354
     15  NH2       12.5590   63.5750   32.1960 N.pl3  80  ARG80       0.1354
     16  N         15.2780   60.8030   28.1380 N.3    93  TYR93      -0.1241
     17  CA        15.2890   60.9050   29.5950 C.3    93  TYR93       0.1605
     18  C         13.9280   60.5820   30.2070 C.2    93  TYR93       0.2264
     19  O         13.8190   60.3620   31.4160 O.2    93  TYR93      -0.2867
     20  CB        15.7290   62.3060   30.0240 C.3    93  TYR93       0.0534
     21  CG        17.0770   62.6950   29.4720 C.ar   93  TYR93      -0.0201
     22  CD1       18.2360   62.0390   29.8860 C.ar   93  TYR93      -0.0009
     23  CD2       17.1920   63.7000   28.5120 C.ar   93  TYR93      -0.0009
     24  CE1       19.4770   62.3710   29.3560 C.ar   93  TYR93       0.0417
     25  CE2       18.4260   64.0420   27.9760 C.ar   93  TYR93       0.0417
     26  CZ        19.5640   63.3740   28.3990 C.ar   93  TYR93       0.1957
     27  OH        20.7870   63.7010   27.8580 O.3    93  TYR93      -0.2866
     28  N         13.7030   56.8720   31.4490 N.3    96  ILE96      -0.1231
     29  CA        14.3900   56.5910   32.7050 C.3    96  ILE96       0.1692
     30  C         13.5510   56.9860   33.9190 C.2    96  ILE96       0.2591
     31  O         13.6950   56.4050   34.9960 O.2    96  ILE96      -0.2718
     32  CB        15.7410   57.3270   32.7800 C.3    96  ILE96       0.0266
     33  CG1       16.6180   56.9570   31.5920 C.3    96  ILE96       0.0019
     34  CG2       16.4320   57.0120   34.1020 C.3    96  ILE96       0.0020
     35  CD1       17.8420   57.8830   31.5640 C.3    96  ILE96       0.0001
     36  N         12.7070   58.0000   33.7530 N.am   97  ALA97      -0.1980
     37  CA        11.8550   58.4610   34.8430 C.3    97  ALA97       0.1597
     38  C         10.6270   57.5690   35.0000 C.2    97  ALA97       0.2287
     39  O         10.0520   57.4810   36.0860 O.2    97  ALA97      -0.2864
     40  CB        11.4400   59.9090   34.6190 C.3    97  ALA97       0.0319
     41  N         12.4140   54.4010   37.1230 N.3   100  ALA100     -0.1231
     42  CA        13.2290   54.6890   38.2960 C.3   100  ALA100      0.1679
     43  C         12.5180   55.5750   39.3180 C.2   100  ALA100      0.2434
     44  O         13.0010   55.7500   40.4430 O.2   100  ALA100     -0.2733
     45  CB        14.5470   55.3210   37.8730 C.3   100  ALA100      0.0304
     46  N         11.3670   56.1540   38.9400 N.am  101  PRO101     -0.2729
     47  CA        10.5760   57.0310   39.8100 C.3   101  PRO101      0.1401
     48  C          9.0750   56.7690   39.7240 C.2   101  PRO101      0.2269
     49  O          8.3350   57.0470   40.6720 O.2   101  PRO101     -0.2865
     50  CB        10.8870   58.4340   39.3290 C.3   101  PRO101      0.0296
     51  CG        10.8670   58.2000   37.8340 C.3   101  PRO101      0.0237
     52  CD        11.6630   56.9070   37.6780 C.3   101  PRO101      0.0939
     53  N          8.7900   52.8900   41.0580 N.3   104  VAL104     -0.1245
     54  CA         9.2440   52.8220   42.4430 C.3   104  VAL104      0.1561
     55  C          8.1700   53.2370   43.4490 C.2   104  VAL104      0.2260
     56  O          8.2030   52.8200   44.6090 O.2   104  VAL104     -0.2867
     57  CB        10.4960   53.6940   42.6570 C.3   104  VAL104      0.0252
     58  CG1       10.9810   53.6450   44.1020 C.3   104  VAL104      0.0019
     59  CG2       11.6170   53.1680   41.7570 C.3   104  VAL104      0.0019
     60  N         10.6150   54.8670   56.5940 N.3   127  ARG127     -0.1245
     61  CA        10.8610   54.0790   55.3910 C.3   127  ARG127      0.1563
     62  C         12.0510   53.1450   55.6050 C.2   127  ARG127      0.2260
     63  O         12.3360   52.2850   54.7690 O.2   127  ARG127     -0.2867
     64  CB        11.1330   55.0000   54.2000 C.3   127  ARG127      0.0307
     65  CG        11.4080   54.2740   52.8730 C.3   127  ARG127      0.0489
     66  CD        11.6850   55.2380   51.7410 C.3   127  ARG127      0.2205
     67  NE        10.5270   56.1190   51.5960 N.pl3 127  ARG127     -0.0865
     68  CZ        10.6130   57.3970   51.2300 C.cat 127  ARG127      0.5346
     69  NH1       11.7950   57.9840   51.0390 N.pl3 127  ARG127      0.1354
     70  NH2        9.5080   58.1270   51.2250 N.pl3 127  ARG127      0.1354
     71  N         19.9490   51.8320   35.6240 N.3   203  GLY203     -0.1225
     72  CA        19.1760   52.3610   36.7340 C.3   203  GLY203      0.1811
     73  C         17.6760   52.2890   36.5180 C.2   203  GLY203      0.2280
     74  O         16.9030   52.3450   37.4780 O.2   203  GLY203     -0.2866
     75  N         16.8020   48.3090   36.6120 N.3   206  MET206     -0.1230
     76  CA        16.9740   47.7690   37.9580 C.3   206  MET206      0.1702
     77  C         15.7960   48.1670   38.8370 C.2   206  MET206      0.2593
     78  O         15.3500   47.3930   39.6820 O.2   206  MET206     -0.2718
     79  CB        18.2790   48.2790   38.5750 C.3   206  MET206      0.0401
     80  CG        18.2950   49.7450   38.8530 C.3   206  MET206      0.0596
     81  SD        18.1440   50.0440   40.6830 S.3   206  MET206     -0.1393
     82  CE        18.6220   51.8180   40.6540 C.3   206  MET206      0.0692
     83  N         15.3220   49.3960   38.6600 N.am  207  SER207     -0.1952
     84  CA        14.1900   49.8990   39.4270 C.3   207  SER207      0.1924
     85  C         12.9030   49.2140   38.9760 C.2   207  SER207      0.2314
     86  O         11.9480   49.1010   39.7450 O.2   207  SER207     -0.2863
     87  CB        14.0610   51.4090   39.2500 C.3   207  SER207      0.2116
     88  OG        15.1640   52.0900   39.7620 O.3   207  SER207     -0.2180
@<TRIPOS>BOND
     1     8     7    2
     2    27    26    1
     3    25    26   ar
     4    25    23   ar
     5    16    17    1
     6     7     6    1
     7    26    24   ar
     8    23    21   ar
     9    24    22   ar
    10    21    22   ar
    11    21    20    1
    12    17    20    1
    13    17    18    1
    14     6     5    1
    15     6     9    1
    16    10     9    1
    17    10    11    1
    18    18    19    2
    19    11    12    1
    20    12    13    2
    21    28    29    1
    22    35    33    1
    23    33    32    1
    24    13    15    1
    25    13    14    1
    26    29    32    1
    27    29    30    1
    28    32    34    1
    29     4     3    2
    30    36    30   am
    31    36    37    1
    32    30    31    2
    33     3     2    1
    34    40    37    1
    35    37    38    1
    36    38    39    2
    37     2     1    1
    38    71    72    1
    39    73    72    1
    40    73    74    2
    41    75    76    1
    42    41    42    1
    43    52    51    1
    44    52    46    1
    45    51    50    1
    46    45    42    1
    47    76    79    1
    48    76    77    1
    49    42    43    1
    50    79    80    1
    51    83    77   am
    52    83    84    1
    53    77    78    2
    54    80    81    1
    55    46    43   am
    56    46    47    1
    57    85    84    1
    58    85    86    2
    59    87    84    1
    60    87    88    1
    61    43    44    2
    62    50    47    1
    63    48    47    1
    64    48    49    2
    65    82    81    1
    66    53    54    1
    67    59    57    1
    68    54    57    1
    69    54    55    1
    70    57    58    1
    71    55    56    2
    72    69    68    1
    73    70    68    1
    74    68    67    2
    75    67    66    1
    76    66    65    1
    77    65    64    1
    78    64    61    1
    79    63    62    2
    80    61    62    1
    81    61    60    1
