@<TRIPOS>MOLECULE
tmp/1izlC10.pdb
 149 140 0 0 0
SMALL
GASTEIGER

@<TRIPOS>ATOM
      1  N         44.2130   76.3740   67.3730 N.3    13  ILE13      -0.1245
      2  CA        43.9450   74.9720   67.6720 C.3    13  ILE13       0.1561
      3  C         44.2900   74.6420   69.1210 C.2    13  ILE13       0.2260
      4  O         43.7910   73.6610   69.6770 O.2    13  ILE13      -0.2867
      5  CB        44.7450   74.0350   66.7460 C.3    13  ILE13       0.0252
      6  CG1       44.1480   72.6260   66.7370 C.3    13  ILE13       0.0019
      7  CG2       46.2490   74.1300   67.0130 C.3    13  ILE13       0.0019
      8  CD1       44.6020   71.7970   65.5840 C.3    13  ILE13       0.0001
      9  N         41.5940   76.5300   71.2990 N.3    16  TRP16      -0.1227
     10  CA        40.2810   75.9300   71.1010 C.3    16  TRP16       0.1737
     11  C         40.1950   74.5890   71.8240 C.2    16  TRP16       0.2595
     12  O         39.1050   74.1290   72.1710 O.2    16  TRP16      -0.2718
     13  CB        40.0040   75.7350   69.6090 C.3    16  TRP16       0.0564
     14  CG        38.5790   75.4060   69.2570 C.ar   16  TRP16       0.0003
     15  CD1       37.4440   76.0150   69.6910 C.ar   16  TRP16       0.0946
     16  CD2       38.1570   74.3910   68.3430 C.ar   16  TRP16       0.0152
     17  NE1       36.3360   75.4450   69.1120 N.ar   16  TRP16      -0.2442
     18  CE2       36.7550   74.4440   68.2690 C.ar   16  TRP16       0.0810
     19  CE3       38.8450   73.4520   67.5700 C.ar   16  TRP16       0.0012
     20  CZ2       36.0140   73.5690   67.4670 C.ar   16  TRP16       0.0191
     21  CZ3       38.1240   72.6010   66.7550 C.ar   16  TRP16       0.0001
     22  CH2       36.7210   72.6830   66.7150 C.ar   16  TRP16       0.0015
     23  N         41.3460   73.9450   71.9980 N.am   17  ALA17      -0.1980
     24  CA        41.4230   72.6600   72.6820 C.3    17  ALA17       0.1597
     25  C         41.6660   72.8680   74.1730 C.2    17  ALA17       0.2287
     26  O         41.3220   72.0120   74.9930 O.2    17  ALA17      -0.2864
     27  CB        42.5320   71.8100   72.0800 C.3    17  ALA17       0.0319
     28  N         37.6810   63.8350   77.4260 N.3    39  LEU39      -0.1231
     29  CA        38.6240   63.3620   76.4200 C.3    39  LEU39       0.1693
     30  C         39.9290   64.1560   76.4530 C.2    39  LEU39       0.2591
     31  O         40.9780   63.6530   76.0460 O.2    39  LEU39      -0.2718
     32  CB        38.0000   63.4530   75.0260 C.3    39  LEU39       0.0284
     33  CG        36.8780   62.4620   74.7170 C.3    39  LEU39       0.0019
     34  CD1       36.2960   62.7980   73.3650 C.3    39  LEU39       0.0001
     35  CD2       37.3700   61.0370   74.7040 C.3    39  LEU39       0.0001
     36  N         39.8510   65.4040   76.9070 N.am   40  ILE40      -0.1980
     37  CA        41.0220   66.2690   76.9930 C.3    40  ILE40       0.1595
     38  C         41.6350   66.2570   78.3910 C.2    40  ILE40       0.2287
     39  O         42.8480   66.4090   78.5480 O.2    40  ILE40      -0.2864
     40  CB        40.6710   67.7200   76.6060 C.3    40  ILE40       0.0276
     41  CG1       39.7120   67.8230   75.4420 C.3    40  ILE40       0.0022
     42  CG2       41.9520   68.4960   76.3280 C.3    40  ILE40       0.0022
     43  CD1       39.1750   69.2310   75.1590 C.3    40  ILE40       0.0001
     44  N         44.1450   62.7000   79.2150 N.3    43  PRO43      -0.2116
     45  CA        45.5720   62.6220   78.8780 C.3    43  PRO43       0.1372
     46  C         46.4610   63.4720   79.7860 C.2    43  PRO43       0.2244
     47  O         47.6900   63.3880   79.7190 O.2    43  PRO43      -0.2868
     48  CB        45.6080   63.1440   77.4390 C.3    43  PRO43       0.0268
     49  CG        44.2440   62.8030   76.9140 C.3    43  PRO43       0.0207
     50  CD        43.3830   63.2160   78.0670 C.3    43  PRO43       0.0892
     51  N         51.8430   64.2800   56.4110 N.3   200  LEU200     -0.1245
     52  CA        50.4700   64.0050   56.8230 C.3   200  LEU200      0.1561
     53  C         50.1860   62.5070   56.7860 C.2   200  LEU200      0.2260
     54  O         49.3780   62.0030   57.5670 O.2   200  LEU200     -0.2867
     55  CB        49.4850   64.7420   55.9160 C.3   200  LEU200      0.0270
     56  CG        49.1910   66.1930   56.3020 C.3   200  LEU200      0.0019
     57  CD1       48.2880   66.8130   55.2510 C.3   200  LEU200      0.0001
     58  CD2       48.4350   66.2240   57.6290 C.3   200  LEU200      0.0001
     59  N         51.7830   61.1460   59.9190 N.3   203  LEU203     -0.1231
     60  CA        51.0860   61.6230   61.1090 C.3   203  LEU203      0.1693
     61  C         49.7370   60.9270   61.2630 C.2   203  LEU203      0.2592
     62  O         49.2580   60.7290   62.3800 O.2   203  LEU203     -0.2718
     63  CB        50.8850   63.1390   61.0370 C.3   203  LEU203      0.0284
     64  CG        50.2560   63.8340   62.2350 C.3   203  LEU203      0.0019
     65  CD1       51.2220   63.8750   63.4130 C.3   203  LEU203      0.0001
     66  CD2       49.8180   65.2490   61.8650 C.3   203  LEU203      0.0001
     67  N         49.1120   60.6020   60.1330 N.am  204  SER204     -0.1952
     68  CA        47.8200   59.9240   60.1240 C.3   204  SER204      0.1924
     69  C         47.9920   58.4390   60.4320 C.2   204  SER204      0.2314
     70  O         47.0600   57.7790   60.8940 O.2   204  SER204     -0.2863
     71  CB        47.1350   60.0990   58.7670 C.3   204  SER204      0.2116
     72  OG        47.8660   59.4550   57.7680 O.3   204  SER204     -0.2180
     73  N         49.9610   57.3680   62.6120 N.3   206  MET206     -0.1230
     74  CA        50.1170   57.3330   64.0600 C.3   206  MET206      0.1702
     75  C         48.8060   57.7160   64.7450 C.2   206  MET206      0.2592
     76  O         48.6690   57.5670   65.9590 O.2   206  MET206     -0.2718
     77  CB        51.2290   58.2880   64.4980 C.3   206  MET206      0.0401
     78  CG        52.6360   58.0060   64.0130 C.3   206  MET206      0.0596
     79  SD        53.2350   56.3760   64.4190 S.3   206  MET206     -0.1393
     80  CE        53.3770   56.5460   66.2700 C.3   206  MET206      0.0692
     81  N         47.8740   58.2570   63.9660 N.am  207  GLY207     -0.1957
     82  CA        46.5830   58.6520   64.5010 C.3   207  GLY207      0.1869
     83  C         45.6080   57.4910   64.5040 C.2   207  GLY207      0.2309
     84  O         44.8390   57.3170   65.4520 O.2   207  GLY207     -0.2863
     85  N         47.0000   55.0970   67.1980 N.3   210  ALA210     -0.1245
     86  CA        46.7730   55.5900   68.5530 C.3   210  ALA210      0.1562
     87  C         45.2860   55.6020   68.9010 C.2   210  ALA210      0.2260
     88  O         44.9150   55.7870   70.0630 O.2   210  ALA210     -0.2867
     89  CB        47.3590   56.9840   68.7130 C.3   210  ALA210      0.0290
     90  N         45.3190   53.7020   72.4940 N.3   214  VAL214     -0.1245
     91  CA        44.8520   54.4850   73.6310 C.3   214  VAL214      0.1561
     92  C         43.4770   53.9950   74.0840 C.2   214  VAL214      0.2260
     93  O         42.7010   54.7470   74.6790 O.2   214  VAL214     -0.2867
     94  CB        44.7660   55.9840   73.2830 C.3   214  VAL214      0.0252
     95  CG1       44.2690   56.8120   74.4630 C.3   214  VAL214      0.0019
     96  CG2       46.1650   56.4790   72.9060 C.3   214  VAL214      0.0019
     97  N         36.6180   56.1480   75.4260 N.3   239  ARG239     -0.1245
     98  CA        37.4820   56.3620   74.2670 C.3   239  ARG239      0.1563
     99  C         36.7870   56.1350   72.9240 C.2   239  ARG239      0.2260
    100  O         37.4140   56.2500   71.8700 O.2   239  ARG239     -0.2867
    101  CB        38.7200   55.4680   74.3660 C.3   239  ARG239      0.0307
    102  CG        39.5620   55.8020   75.5930 C.3   239  ARG239      0.0489
    103  CD        39.9810   57.2620   75.7260 C.3   239  ARG239      0.2205
    104  NE        41.0880   57.5900   74.8400 N.pl3 239  ARG239     -0.0865
    105  CZ        41.5910   58.7890   74.5560 C.cat 239  ARG239      0.5346
    106  NH1       41.1210   59.9200   75.0710 N.pl3 239  ARG239      0.1354
    107  NH2       42.6040   58.8430   73.6910 N.pl3 239  ARG239      0.1354
    108  N         36.8160   59.2720   70.6970 N.3   242  LEU242     -0.1245
    109  CA        38.0990   59.5970   70.0800 C.3   242  LEU242      0.1561
    110  C         38.4030   58.6430   68.9270 C.2   242  LEU242      0.2260
    111  O         39.0950   59.0060   67.9750 O.2   242  LEU242     -0.2867
    112  CB        39.2210   59.5280   71.1190 C.3   242  LEU242      0.0270
    113  CG        40.6360   60.0450   70.9370 C.3   242  LEU242      0.0019
    114  CD1       41.6420   59.2000   70.2190 C.3   242  LEU242      0.0001
    115  CD2       40.7770   61.4340   70.3290 C.3   242  LEU242      0.0001
    116  N         38.3440   61.3770   65.8000 N.3   246  HIS246     -0.1241
    117  CA        39.7350   61.6770   65.4880 C.3   246  HIS246      0.1621
    118  C         40.2570   60.6540   64.4840 C.2   246  HIS246      0.2264
    119  O         41.1410   60.9530   63.6820 O.2   246  HIS246     -0.2867
    120  CB        40.5860   61.6360   66.7590 C.3   246  HIS246      0.0745
    121  CG        42.0140   62.1160   66.5730 C.ar  246  HIS246      0.0817
    122  ND1       42.4990   63.3080   66.8980 N.ar  246  HIS246     -0.2268
    123  CD2       43.0660   61.3470   66.1530 C.ar  246  HIS246      0.1154
    124  CE1       43.7970   63.2980   66.7170 C.ar  246  HIS246      0.1986
    125  NE2       44.1170   62.1170   66.2730 N.ar  246  HIS246     -0.2212
    126  N         38.7470   61.5300   61.1730 N.3   249  LEU249     -0.1231
    127  CA        39.3720   62.7350   60.6420 C.3   249  LEU249      0.1693
    128  C         40.7930   62.4370   60.1690 C.2   249  LEU249      0.2591
    129  O         41.3740   63.2100   59.4050 O.2   249  LEU249     -0.2718
    130  CB        39.3980   63.8330   61.7080 C.3   249  LEU249      0.0284
    131  CG        39.9310   65.2020   61.3110 C.3   249  LEU249      0.0019
    132  CD1       38.9550   65.9220   60.3890 C.3   249  LEU249      0.0001
    133  CD2       40.2070   66.0490   62.5510 C.3   249  LEU249      0.0001
    134  N         41.3570   61.3390   60.6630 N.am  250  ALA250     -0.1980
    135  CA        42.7080   60.9280   60.2970 C.3   250  ALA250      0.1597
    136  C         42.7010   60.0880   59.0210 C.2   250  ALA250      0.2287
    137  O         43.6770   60.0810   58.2690 O.2   250  ALA250     -0.2864
    138  CB        43.3480   60.1480   61.4390 C.3   250  ALA250      0.0319
    139  N         41.8060   62.7210   56.0900 N.3   253  PHE253     -0.1241
    140  CA        42.9030   63.6230   55.7540 C.3   253  PHE253      0.1605
    141  C         44.0240   62.8670   55.0480 C.2   253  PHE253      0.2264
    142  O         44.7770   63.4520   54.2680 O.2   253  PHE253     -0.2867
    143  CB        43.4440   64.3010   57.0150 C.3   253  PHE253      0.0534
    144  CG        42.7600   65.5270   57.5450 C.ar  253  PHE253     -0.0203
    145  CD1       41.6230   65.9120   56.9830 C.ar  253  PHE253     -0.0042
    146  CD2       43.2270   66.1990   58.6430 C.ar  253  PHE253     -0.0042
    147  CE1       40.9200   67.0590   57.4480 C.ar  253  PHE253     -0.0003
    148  CE2       42.5010   67.3120   59.1390 C.ar  253  PHE253     -0.0003
    149  CZ        41.3970   67.7370   58.5200 C.ar  253  PHE253     -0.0000
@<TRIPOS>BOND
     1   142   141    2
     2   141   140    1
     3    57    56    1
     4   140   139    1
     5   140   143    1
     6    55    56    1
     7    55    52    1
     8    56    58    1
     9    51    52    1
    10    53    52    1
    11    53    54    2
    12   145   147   ar
    13   145   144   ar
    14   143   144    1
    15   147   149   ar
    16   144   146   ar
    17    72    71    1
    18   137   136    2
    19   149   148   ar
    20   146   148   ar
    21    71    68    1
    22   136   135    1
    23   129   128    2
    24    59    60    1
    25    68    67    1
    26    68    69    1
    27    67    61   am
    28   128   127    1
    29   128   134   am
    30   135   134    1
    31   135   138    1
    32   132   131    1
    33    69    70    2
    34   127   126    1
    35   127   130    1
    36    63    60    1
    37    63    64    1
    38    60    61    1
    39    61    62    2
    40   131   130    1
    41   131   133    1
    42    66    64    1
    43    64    65    1
    44    73    74    1
    45   119   118    2
    46    81    82    1
    47    81    75   am
    48    78    79    1
    49    78    77    1
    50    74    77    1
    51    74    75    1
    52    79    80    1
    53   118   117    1
    54    82    83    1
    55    83    84    2
    56    75    76    2
    57   117   116    1
    58   117   120    1
    59     8     6    1
    60   123   125   ar
    61   123   121   ar
    62   125   124   ar
    63   121   120    1
    64   121   122   ar
    65    22    21   ar
    66    22    20   ar
    67   124   122   ar
    68     6     5    1
    69     5     7    1
    70     5     2    1
    71    21    19   ar
    72    85    86    1
    73     1     2    1
    74    20    18   ar
    75    19    16   ar
    76     2     3    1
    77   111   110    2
    78    18    16   ar
    79    18    17   ar
    80    16    14   ar
    81    86    89    1
    82    86    87    1
    83    87    88    2
    84   110   109    1
    85    17    15   ar
    86     3     4    2
    87    14    13    1
    88    14    15   ar
    89    13    10    1
    90   109   108    1
    91   109   112    1
    92   114   113    1
    93   115   113    1
    94   113   112    1
    95    10     9    1
    96    10    11    1
    97    11    23   am
    98    11    12    2
    99   100    99    2
   100    23    24    1
   101    27    24    1
   102    90    91    1
   103    24    25    1
   104    96    94    1
   105    99    98    1
   106    94    91    1
   107    94    95    1
   108    34    33    1
   109    91    92    1
   110   107   105    1
   111    92    93    2
   112    25    26    2
   113    98   101    1
   114    98    97    1
   115   101   102    1
   116   105   104    2
   117   105   106    1
   118    35    33    1
   119    33    32    1
   120   104   103    1
   121    32    29    1
   122    43    41    1
   123    41    40    1
   124   102   103    1
   125    31    30    2
   126    42    40    1
   127    29    30    1
   128    29    28    1
   129    30    36   am
   130    40    37    1
   131    36    37    1
   132    49    48    1
   133    49    50    1
   134    37    38    1
   135    48    45    1
   136    50    44    1
   137    38    39    2
   138    45    44    1
   139    45    46    1
   140    47    46    2
