@<TRIPOS>MOLECULE
tmp/1izlO01.pdb
 92 89 0 0 0
SMALL
GASTEIGER

@<TRIPOS>ATOM
      1  N          5.3630   -1.1720   -3.1220 N.3   116  LEU116     -0.1245
      2  CA         4.5700   -0.4660   -2.1220 C.3   116  LEU116      0.1561
      3  C          3.3270   -1.2720   -1.7610 C.2   116  LEU116      0.2260
      4  O          2.9750   -1.3930   -0.5860 O.2   116  LEU116     -0.2867
      5  CB         4.1630    0.9140   -2.6420 C.3   116  LEU116      0.0270
      6  CG         3.4060    1.8380   -1.7000 C.3   116  LEU116      0.0019
      7  CD1        4.3200    2.3650   -0.6000 C.3   116  LEU116      0.0001
      8  CD2        2.7870    3.0010   -2.4710 C.3   116  LEU116      0.0001
      9  N          3.4650   -4.9820    0.5560 N.3   119  ALA119     -0.1231
     10  CA         3.2780   -5.1340    1.9920 C.3   119  ALA119      0.1694
     11  C          1.9060   -4.6130    2.4060 C.2   119  ALA119      0.2592
     12  O          1.3620   -5.0260    3.4280 O.2   119  ALA119     -0.2718
     13  CB         4.3740   -4.3940    2.7450 C.3   119  ALA119      0.0304
     14  N          1.3730   -3.6800    1.6230 N.am  120  PHE120     -0.1976
     15  CA         0.0650   -3.0890    1.8910 C.3   120  PHE120      0.1639
     16  C         -1.0650   -4.0680    1.5860 C.2   120  PHE120      0.2290
     17  O         -2.0280   -4.1700    2.3450 O.2   120  PHE120     -0.2864
     18  CB        -0.1180   -1.8130    1.0650 C.3   120  PHE120      0.0560
     19  CG         0.4400   -0.5170    1.5760 C.ar  120  PHE120     -0.0200
     20  CD1        1.1950   -0.5370    2.6650 C.ar  120  PHE120     -0.0042
     21  CD2        0.2680    0.6620    0.9000 C.ar  120  PHE120     -0.0042
     22  CE1        1.7640    0.6570    3.1910 C.ar  120  PHE120     -0.0003
     23  CE2        0.8750    1.8440    1.3960 C.ar  120  PHE120     -0.0003
     24  CZ         1.5720    1.8270    2.5340 C.ar  120  PHE120     -0.0000
     25  N         -1.2970   -7.3190    3.9840 N.3   123  PHE123     -0.1241
     26  CA        -1.9770   -7.2270    5.2710 C.3   123  PHE123      0.1605
     27  C         -3.4740   -7.4940    5.1170 C.2   123  PHE123      0.2264
     28  O         -4.1510   -7.8520    6.0820 O.2   123  PHE123     -0.2867
     29  CB        -1.7520   -5.8430    5.8960 C.3   123  PHE123      0.0534
     30  CG        -0.3020   -5.4990    6.1260 C.ar  123  PHE123     -0.0203
     31  CD1        0.0850   -4.1750    6.3160 C.ar  123  PHE123     -0.0042
     32  CD2        0.6780   -6.4900    6.1490 C.ar  123  PHE123     -0.0042
     33  CE1        1.4230   -3.8420    6.5280 C.ar  123  PHE123     -0.0003
     34  CE2        2.0190   -6.1670    6.3590 C.ar  123  PHE123     -0.0003
     35  CZ         2.3900   -4.8400    6.5470 C.ar  123  PHE123     -0.0000
     36  N         -1.3980   -7.3280   12.1630 N.3   137  MET137     -0.1245
     37  CA        -0.7420   -6.0370   12.3080 C.3   137  MET137      0.1570
     38  C         -1.2820   -5.3650   13.5660 C.2   137  MET137      0.2261
     39  O         -2.4720   -5.0530   13.6550 O.2   137  MET137     -0.2867
     40  CB        -1.0120   -5.1580   11.0870 C.3   137  MET137      0.0387
     41  CG        -0.1520   -3.8920   11.0240 C.3   137  MET137      0.0595
     42  SD         1.6310   -4.2060   10.8250 S.3   137  MET137     -0.1393
     43  CE         2.3970   -2.5910   11.3940 C.3   137  MET137      0.0692
     44  N          0.2720    0.4600   15.1060 N.3   141  ILE141     -0.1245
     45  CA         1.4880    0.2000   14.3350 C.3   141  ILE141      0.1561
     46  C          2.7310    0.8930   14.8920 C.2   141  ILE141      0.2260
     47  O          2.9490    2.0840   14.6650 O.2   141  ILE141     -0.2867
     48  CB         1.3160    0.5850   12.8480 C.3   141  ILE141      0.0252
     49  CG1        0.2090   -0.2080   12.1820 C.3   141  ILE141      0.0019
     50  CG2        2.6250    0.5190   12.1080 C.3   141  ILE141      0.0019
     51  CD1        0.0170    0.1520   10.6400 C.3   141  ILE141      0.0001
     52  N          6.9660   -0.1200   15.4510 N.3   143  GLY143     -0.1210
     53  CA         8.0840   -1.0450   15.4000 C.3   143  GLY143      0.1956
     54  C          7.8010   -2.2740   14.5570 C.2   143  GLY143      0.2613
     55  O          8.5710   -2.6020   13.6530 O.2   143  GLY143     -0.2717
     56  N          6.6830   -2.9390   14.8420 N.am  144  THR144     -0.1938
     57  CA         6.2630   -4.1440   14.1300 C.3   144  THR144      0.2028
     58  C          7.2370   -5.3060   14.3170 C.2   144  THR144      0.2642
     59  O          7.9200   -5.7210   13.3790 O.2   144  THR144     -0.2714
     60  CB         6.0600   -3.8780   12.6220 C.3   144  THR144      0.1808
     61  OG1        5.2180   -2.7610   12.4520 O.3   144  THR144     -0.2208
     62  CG2        5.5180   -5.0670   11.8980 C.3   144  THR144      0.0379
     63  N          7.3140   -5.8040   15.5480 N.am  145  PHE145     -0.1973
     64  CA         8.1860   -6.9260   15.8750 C.3   145  PHE145      0.1639
     65  C          7.3960   -8.2260   15.9910 C.2   145  PHE145      0.2290
     66  O          7.9720   -9.2970   16.1880 O.2   145  PHE145     -0.2864
     67  CB         8.9490   -6.6540   17.1740 C.3   145  PHE145      0.0560
     68  CG        10.0620   -5.6590   17.0240 C.ar  145  PHE145     -0.0200
     69  CD1        9.8950   -4.3370   17.4210 C.ar  145  PHE145     -0.0042
     70  CD2       11.2790   -6.0440   16.4710 C.ar  145  PHE145     -0.0042
     71  CE1       10.9250   -3.4100   17.2660 C.ar  145  PHE145     -0.0003
     72  CE2       12.3140   -5.1290   16.3130 C.ar  145  PHE145     -0.0003
     73  CZ        12.1380   -3.8090   16.7120 C.ar  145  PHE145     -0.0000
     74  N          5.2890   -9.2230   13.5650 N.3   147  PHE147     -0.1227
     75  CA         5.2730   -9.7750   12.2120 C.3   147  PHE147      0.1736
     76  C          6.6470  -10.3220   11.8250 C.2   147  PHE147      0.2595
     77  O          6.9210  -10.5690   10.6490 O.2   147  PHE147     -0.2718
     78  CB         4.8330   -8.7060   11.2070 C.3   147  PHE147      0.0547
     79  CG         3.4810   -8.9590   10.5990 C.ar  147  PHE147     -0.0202
     80  CD1        2.5790   -7.9150   10.4200 C.ar  147  PHE147     -0.0042
     81  CD2        3.1130  -10.2390   10.1910 C.ar  147  PHE147     -0.0042
     82  CE1        1.3300   -8.1400    9.8440 C.ar  147  PHE147     -0.0003
     83  CE2        1.8660  -10.4740    9.6150 C.ar  147  PHE147     -0.0003
     84  CZ         0.9730   -9.4220    9.4400 C.ar  147  PHE147     -0.0000
     85  N          7.5220  -10.4490   12.8180 N.am  148  MET148     -0.1979
     86  CA         8.8690  -10.9690   12.6150 C.3   148  MET148      0.1605
     87  C          9.0830  -12.1880   13.5090 C.2   148  MET148      0.2287
     88  O         10.1310  -12.8390   13.4520 O.2   148  MET148     -0.2864
     89  CB         9.9060   -9.8920   12.9450 C.3   148  MET148      0.0413
     90  CG         9.6430   -8.5660   12.2740 C.3   148  MET148      0.0598
     91  SD        10.2510   -8.6130   10.5980 S.3   148  MET148     -0.1393
     92  CE        12.0050   -8.6530   11.0490 C.3   148  MET148      0.0692
@<TRIPOS>BOND
     1     1     2    1
     2     5     2    1
     3     5     6    1
     4     8     6    1
     5     2     3    1
     6     3     4    2
     7     6     7    1
     8     9    10    1
     9    21    23   ar
    10    21    19   ar
    11    18    19    1
    12    18    15    1
    13    23    24   ar
    14    19    20   ar
    15    16    15    1
    16    16    17    2
    17    14    15    1
    18    14    11   am
    19    10    11    1
    20    10    13    1
    21    11    12    2
    22    24    22   ar
    23    20    22   ar
    24    25    26    1
    25    27    26    1
    26    27    28    2
    27    26    29    1
    28    29    30    1
    29    30    32   ar
    30    30    31   ar
    31    32    34   ar
    32    31    33   ar
    33    34    35   ar
    34    33    35   ar
    35    84    83   ar
    36    84    82   ar
    37    83    81   ar
    38    82    80   ar
    39    81    79   ar
    40    80    79   ar
    41    91    92    1
    42    91    90    1
    43    79    78    1
    44    51    49    1
    45    77    76    2
    46    42    41    1
    47    42    43    1
    48    41    40    1
    49    40    37    1
    50    78    75    1
    51    76    75    1
    52    76    85   am
    53    62    60    1
    54    50    48    1
    55    36    37    1
    56    49    48    1
    57    75    74    1
    58    90    89    1
    59    37    38    1
    60    61    60    1
    61    86    85    1
    62    86    89    1
    63    86    87    1
    64    60    57    1
    65    48    45    1
    66    59    58    2
    67    88    87    2
    68    38    39    2
    69    55    54    2
    70    57    58    1
    71    57    56    1
    72    58    63   am
    73    45    46    1
    74    45    44    1
    75    54    56   am
    76    54    53    1
    77    47    46    2
    78    53    52    1
    79    63    64    1
    80    64    65    1
    81    64    67    1
    82    65    66    2
    83    72    70   ar
    84    72    73   ar
    85    70    68   ar
    86    73    71   ar
    87    68    67    1
    88    68    69   ar
    89    71    69   ar
