@<TRIPOS>MOLECULE
tmp/1izlD01.pdb
 97 96 0 0 0
SMALL
GASTEIGER

@<TRIPOS>ATOM
      1  N          3.3050   66.9580   53.2980 N.3    15  TRP15      -0.1241
      2  CA         4.4760   66.3230   53.8990 C.3    15  TRP15       0.1605
      3  C          5.0450   67.2090   55.0080 C.2    15  TRP15       0.2264
      4  O          5.4070   66.7250   56.0820 O.2    15  TRP15      -0.2867
      5  CB         5.5390   66.0730   52.8210 C.3    15  TRP15       0.0550
      6  CG         6.6690   65.1770   53.2480 C.ar   15  TRP15       0.0003
      7  CD1        6.7350   63.8210   53.1130 C.ar   15  TRP15       0.0946
      8  CD2        7.9030   65.5810   53.8590 C.ar   15  TRP15       0.0152
      9  NE1        7.9320   63.3530   53.6000 N.ar   15  TRP15      -0.2442
     10  CE2        8.6670   64.4110   54.0650 C.ar   15  TRP15       0.0810
     11  CE3        8.4380   66.8160   54.2530 C.ar   15  TRP15       0.0012
     12  CZ2        9.9380   64.4390   54.6480 C.ar   15  TRP15       0.0191
     13  CZ3        9.7000   66.8460   54.8330 C.ar   15  TRP15       0.0001
     14  CH2       10.4360   65.6630   55.0240 C.ar   15  TRP15       0.0015
     15  N          8.7900   52.8900   41.0580 N.3   104  VAL104     -0.1231
     16  CA         9.2440   52.8220   42.4430 C.3   104  VAL104      0.1692
     17  C          8.1700   53.2370   43.4490 C.2   104  VAL104      0.2592
     18  O          8.2030   52.8200   44.6090 O.2   104  VAL104     -0.2718
     19  CB        10.4960   53.6940   42.6570 C.3   104  VAL104      0.0266
     20  CG1       10.9810   53.6450   44.1020 C.3   104  VAL104      0.0020
     21  CG2       11.6170   53.1680   41.7570 C.3   104  VAL104      0.0020
     22  N          7.2360   54.0730   43.0080 N.am  105  PHE105     -0.1976
     23  CA         6.1590   54.5420   43.8700 C.3   105  PHE105      0.1639
     24  C          4.8460   53.8180   43.5780 C.2   105  PHE105      0.2290
     25  O          4.0570   53.5600   44.4900 O.2   105  PHE105     -0.2864
     26  CB         5.9730   56.0530   43.7060 C.3   105  PHE105      0.0560
     27  CG         5.3200   56.7170   44.8860 C.ar  105  PHE105     -0.0200
     28  CD1        6.0900   57.3950   45.8260 C.ar  105  PHE105     -0.0042
     29  CD2        3.9390   56.6650   45.0620 C.ar  105  PHE105     -0.0042
     30  CE1        5.4970   58.0110   46.9230 C.ar  105  PHE105     -0.0003
     31  CE2        3.3360   57.2780   46.1550 C.ar  105  PHE105     -0.0003
     32  CZ         4.1160   57.9530   47.0890 C.ar  105  PHE105     -0.0000
     33  N          4.5960   50.4260   45.5990 N.3   108  VAL108     -0.1245
     34  CA         4.3450   50.4850   47.0350 C.3   108  VAL108      0.1561
     35  C          2.9690   51.0630   47.3650 C.2   108  VAL108      0.2260
     36  O          2.6470   51.2810   48.5370 O.2   108  VAL108     -0.2867
     37  CB         5.4220   51.3260   47.7550 C.3   108  VAL108      0.0252
     38  CG1        5.1690   51.4060   49.2570 C.3   108  VAL108      0.0019
     39  CG2        6.7850   50.6660   47.5330 C.3   108  VAL108      0.0019
     40  N          3.1440   51.5920   53.6540 N.3   120  PHE120     -0.1227
     41  CA         4.5650   51.8880   53.8210 C.3   120  PHE120      0.1736
     42  C          4.7960   53.2110   54.5570 C.2   120  PHE120      0.2596
     43  O          3.8480   53.9250   54.8900 O.2   120  PHE120     -0.2718
     44  CB         5.2300   51.9360   52.4390 C.3   120  PHE120      0.0547
     45  CG         6.7070   51.6420   52.4530 C.ar  120  PHE120     -0.0202
     46  CD1        7.1750   50.3680   52.7570 C.ar  120  PHE120     -0.0042
     47  CD2        7.6300   52.6350   52.1310 C.ar  120  PHE120     -0.0042
     48  CE1        8.5390   50.0840   52.7380 C.ar  120  PHE120     -0.0003
     49  CE2        8.9950   52.3620   52.1100 C.ar  120  PHE120     -0.0003
     50  CZ         9.4510   51.0820   52.4130 C.ar  120  PHE120     -0.0000
     51  N          6.0620   53.5080   54.8370 N.am  121  GLY121     -0.1957
     52  CA         6.4110   54.7380   55.5220 C.3   121  GLY121      0.1869
     53  C          6.7550   55.8560   54.5550 C.2   121  GLY121      0.2309
     54  O          7.0560   55.6080   53.3860 O.2   121  GLY121     -0.2863
     55  N          9.0850   58.8540   55.3390 N.3   123  ALA123     -0.1231
     56  CA        10.0030   59.7140   56.0790 C.3   123  ALA123      0.1694
     57  C         11.4370   59.2040   55.9690 C.2   123  ALA123      0.2591
     58  O         11.8720   58.7790   54.8940 O.2   123  ALA123     -0.2718
     59  CB         9.5780   59.8040   57.5420 C.3   123  ALA123      0.0304
     60  N         12.1750   59.2750   57.0730 N.am  124  ALA124     -0.1980
     61  CA        13.5600   58.8200   57.1140 C.3   124  ALA124      0.1597
     62  C         13.6760   57.4680   57.8110 C.2   124  ALA124      0.2287
     63  O         14.1540   56.4990   57.2240 O.2   124  ALA124     -0.2864
     64  CB        14.4260   59.8550   57.8260 C.3   124  ALA124      0.0319
     65  N         10.6150   54.8670   56.5940 N.3   127  ARG127     -0.1231
     66  CA        10.8610   54.0790   55.3910 C.3   127  ARG127      0.1694
     67  C         12.0510   53.1450   55.6050 C.2   127  ARG127      0.2592
     68  O         12.3360   52.2850   54.7690 O.2   127  ARG127     -0.2718
     69  CB        11.1330   55.0000   54.2000 C.3   127  ARG127      0.0321
     70  CG        11.4080   54.2740   52.8730 C.3   127  ARG127      0.0489
     71  CD        11.6850   55.2380   51.7410 C.3   127  ARG127      0.2205
     72  NE        10.5270   56.1190   51.5960 N.pl3 127  ARG127     -0.0865
     73  CZ        10.6130   57.3970   51.2300 C.cat 127  ARG127      0.5346
     74  NH1       11.7950   57.9840   51.0390 N.pl3 127  ARG127      0.1354
     75  NH2        9.5080   58.1270   51.2250 N.pl3 127  ARG127      0.1354
     76  N         12.7690   53.3550   56.7050 N.am  128  PHE128     -0.1976
     77  CA        13.9250   52.5370   57.0420 C.3   128  PHE128      0.1639
     78  C         13.5350   51.3600   57.9320 C.2   128  PHE128      0.2290
     79  O         14.2760   50.3790   58.0340 O.2   128  PHE128     -0.2864
     80  CB        14.9930   53.3860   57.7350 C.3   128  PHE128      0.0560
     81  CG        16.2440   52.6450   58.1530 C.ar  128  PHE128     -0.0200
     82  CD1       17.0140   51.9530   57.2590 C.ar  128  PHE128     -0.0042
     83  CD2       16.6790   52.6910   59.4530 C.ar  128  PHE128     -0.0042
     84  CE1       18.2010   51.3340   57.5900 C.ar  128  PHE128     -0.0003
     85  CE2       17.8990   52.0770   59.8330 C.ar  128  PHE128     -0.0003
     86  CZ        18.6000   51.3910   58.9020 C.ar  128  PHE128     -0.0000
     87  N         11.3290   48.9010   55.5060 N.3   131  PHE131     -0.1241
     88  CA        12.1650   48.2120   54.5300 C.3   131  PHE131      0.1605
     89  C         13.0770   47.2220   55.2520 C.2   131  PHE131      0.2264
     90  O         13.8330   46.4770   54.6220 O.2   131  PHE131     -0.2867
     91  CB        13.0050   49.2170   53.7380 C.3   131  PHE131      0.0534
     92  CG        13.9300   48.6190   52.7010 C.ar  131  PHE131     -0.0203
     93  CD1       13.4710   47.8220   51.6890 C.ar  131  PHE131     -0.0042
     94  CD2       15.2710   48.9060   52.7150 C.ar  131  PHE131     -0.0042
     95  CE1       14.2730   47.3250   50.6830 C.ar  131  PHE131     -0.0003
     96  CE2       16.1280   48.4260   51.6940 C.ar  131  PHE131     -0.0003
     97  CZ        15.6110   47.6240   50.7340 C.ar  131  PHE131     -0.0000
@<TRIPOS>BOND
     1    15    16    1
     2    21    19    1
     3    16    19    1
     4    16    17    1
     5    19    20    1
     6    22    17   am
     7    22    23    1
     8    17    18    2
     9    24    23    1
    10    24    25    2
    11    26    23    1
    12    26    27    1
    13    27    29   ar
    14    27    28   ar
    15    29    31   ar
    16    33    34    1
    17    28    30   ar
    18    31    32   ar
    19    30    32   ar
    20    34    35    1
    21    34    37    1
    22    35    36    2
    23    39    37    1
    24    37    38    1
    25    95    97   ar
    26    95    93   ar
    27    97    96   ar
    28    74    73    1
    29    75    73    1
    30    73    72    2
    31    72    71    1
    32    93    92   ar
    33    96    94   ar
    34    71    70    1
    35    49    47   ar
    36    49    50   ar
    37    47    45   ar
    38    50    48   ar
    39    44    45    1
    40    44    41    1
    41    45    46   ar
    42    92    94   ar
    43    92    91    1
    44    48    46   ar
    45     5     6    1
    46     5     2    1
    47    70    69    1
    48     7     6   ar
    49     7     9   ar
    50     6     8   ar
    51     1     2    1
    52    54    53    2
    53     9    10   ar
    54    40    41    1
    55    91    88    1
    56    41    42    1
    57     8    10   ar
    58     8    11   ar
    59     2     3    1
    60    10    12   ar
    61    69    66    1
    62    11    13   ar
    63    88    89    1
    64    88    87    1
    65    53    52    1
    66    42    51   am
    67    42    43    2
    68    90    89    2
    69    12    14   ar
    70    68    67    2
    71    13    14   ar
    72    51    52    1
    73    58    57    2
    74     3     4    2
    75    55    56    1
    76    66    67    1
    77    66    65    1
    78    67    76   am
    79    57    56    1
    80    57    60   am
    81    56    59    1
    82    76    77    1
    83    77    80    1
    84    77    78    1
    85    60    61    1
    86    61    62    1
    87    61    64    1
    88    63    62    2
    89    82    84   ar
    90    82    81   ar
    91    84    86   ar
    92    80    81    1
    93    78    79    2
    94    81    83   ar
    95    86    85   ar
    96    83    85   ar
