@<TRIPOS>MOLECULE
tmp/1izlB04.pdb
 97 94 0 0 0
SMALL
GASTEIGER

@<TRIPOS>ATOM
      1  N         -0.8530   42.1620    8.7420 N.3    20  ILE20      -0.1245
      2  CA        -2.0550   41.3610    8.9480 C.3    20  ILE20       0.1561
      3  C         -1.7070   39.8810    9.0770 C.2    20  ILE20       0.2260
      4  O         -2.4560   39.1100    9.6800 O.2    20  ILE20      -0.2867
      5  CB        -3.0590   41.5420    7.7920 C.3    20  ILE20       0.0252
      6  CG1       -3.5900   43.0200    7.8400 C.3    20  ILE20       0.0019
      7  CG2       -4.2150   40.5660    7.9410 C.3    20  ILE20       0.0019
      8  CD1       -4.7910   43.2770    7.0080 C.3    20  ILE20       0.0001
      9  N         -2.1300   37.4180   12.5160 N.3    24  LEU24      -0.1245
     10  CA        -2.9370   36.2070   12.4340 C.3    24  LEU24       0.1561
     11  C         -2.1500   34.9840   12.8960 C.2    24  LEU24       0.2260
     12  O         -2.6680   34.1530   13.6420 O.2    24  LEU24      -0.2867
     13  CB        -3.4310   35.9940   11.0010 C.3    24  LEU24       0.0270
     14  CG        -4.6450   35.1300   10.7320 C.3    24  LEU24       0.0019
     15  CD1       -5.9070   35.7050   11.3600 C.3    24  LEU24       0.0001
     16  CD2       -4.8320   34.9810    9.2190 C.3    24  LEU24       0.0001
     17  N         -4.7390   26.6100   10.2400 N.3   100  LEU100     -0.1231
     18  CA        -5.3700   27.3360    9.1450 C.3   100  LEU100      0.1693
     19  C         -4.7170   28.6970    8.9470 C.2   100  LEU100      0.2591
     20  O         -4.5680   29.1630    7.8150 O.2   100  LEU100     -0.2718
     21  CB        -6.8650   27.5100    9.4160 C.3   100  LEU100      0.0284
     22  CG        -7.7150   28.1650    8.3380 C.3   100  LEU100      0.0019
     23  CD1       -7.8950   27.2370    7.1430 C.3   100  LEU100      0.0001
     24  CD2       -9.0760   28.5690    8.9000 C.3   100  LEU100      0.0001
     25  N         -4.3730   29.3470   10.0550 N.am  101  LEU101     -0.1980
     26  CA        -3.7310   30.6580   10.0200 C.3   101  LEU101      0.1596
     27  C         -2.2410   30.5290    9.7030 C.2   101  LEU101      0.2287
     28  O         -1.6320   31.4580    9.1740 O.2   101  LEU101     -0.2864
     29  CB        -3.9280   31.3810   11.3560 C.3   101  LEU101      0.0297
     30  CG        -5.3690   31.5650   11.7970 C.3   101  LEU101      0.0022
     31  CD1       -5.4140   32.4270   13.0570 C.3   101  LEU101      0.0001
     32  CD2       -6.3260   32.1710   10.7650 C.3   101  LEU101      0.0001
     33  N         -2.4560   30.5510    6.0660 N.3   104  ALA104     -0.1245
     34  CA        -3.1120   31.7560    5.5660 C.3   104  ALA104      0.1562
     35  C         -2.1610   32.9460    5.6040 C.2   104  ALA104      0.2260
     36  O         -2.1950   33.8070    4.7230 O.2   104  ALA104     -0.2867
     37  CB        -4.3600   32.0550    6.3860 C.3   104  ALA104      0.0290
     38  N          0.2080   32.9440    2.8230 N.3   107  TRP107     -0.1227
     39  CA        -0.4050   33.3350    1.5590 C.3   107  TRP107      0.1737
     40  C         -0.3460   34.8480    1.3640 C.2   107  TRP107      0.2595
     41  O         -0.4640   35.3400    0.2400 O.2   107  TRP107     -0.2718
     42  CB        -1.8590   32.8610    1.5080 C.3   107  TRP107      0.0564
     43  CG        -2.4930   32.9190    0.1660 C.ar  107  TRP107      0.0003
     44  CD1       -1.9000   33.1830   -1.0530 C.ar  107  TRP107      0.0946
     45  CD2       -3.9030   32.6820   -0.1150 C.ar  107  TRP107      0.0152
     46  NE1       -2.8650   33.0550   -2.0640 N.ar  107  TRP107     -0.2442
     47  CE2       -4.0710   32.8020   -1.5160 C.ar  107  TRP107      0.0810
     48  CE3       -4.9830   32.3320    0.7030 C.ar  107  TRP107      0.0012
     49  CZ2       -5.3240   32.5820   -2.1240 C.ar  107  TRP107      0.0191
     50  CZ3       -6.2040   32.1150    0.1010 C.ar  107  TRP107      0.0001
     51  CH2       -6.3820   32.2020   -1.2770 C.ar  107  TRP107      0.0015
     52  N         -0.2120   35.5770    2.4670 N.am  108  HIS108     -0.1975
     53  CA        -0.1340   37.0340    2.4340 C.3   108  HIS108      0.1656
     54  C          1.3180   37.5030    2.4840 C.2   108  HIS108      0.2291
     55  O          1.6320   38.6270    2.0860 O.2   108  HIS108     -0.2864
     56  CB        -0.9110   37.6300    3.6090 C.3   108  HIS108      0.0771
     57  CG        -2.3890   37.4920    3.4550 C.ar  108  HIS108      0.0820
     58  ND1       -3.2650   37.4930    4.5040 N.ar  108  HIS108     -0.2267
     59  CD2       -3.1740   37.3520    2.3430 C.ar  108  HIS108      0.1154
     60  CE1       -4.5070   37.3610    4.0870 C.ar  108  HIS108      0.1986
     61  NE2       -4.4750   37.2720    2.7600 N.ar  108  HIS108     -0.2212
     62  N         -3.7130   45.4720   -4.1240 N.3   115  GLU115     -0.1231
     63  CA        -4.6600   45.7360   -5.2020 C.3   115  GLU115      0.1699
     64  C         -5.7560   46.6830   -4.7210 C.2   115  GLU115      0.2592
     65  O         -6.1470   47.6080   -5.4360 O.2   115  GLU115     -0.2718
     66  CB        -5.2820   44.4260   -5.6890 C.3   115  GLU115      0.0402
     67  CG        -6.4580   44.7000   -6.6270 C.3   115  GLU115      0.1161
     68  CD        -6.9320   43.5050   -7.4360 C.2   115  GLU115      0.3649
     69  OE1       -6.3870   42.4000   -7.2640 O.co2 115  GLU115     -0.2457
     70  OE2       -7.8530   43.6930   -8.2610 O.co2 115  GLU115     -0.2457
     71  N         -6.2830   46.4090   -3.5300 N.am  116  LEU116     -0.1966
     72  CA        -7.3270   47.2360   -2.9310 C.3   116  LEU116      0.1728
     73  C         -6.6950   48.4710   -2.2930 C.2   116  LEU116      0.2616
     74  O         -7.1850   49.5890   -2.4610 O.2   116  LEU116     -0.2715
     75  CB        -8.0980   46.4480   -1.8680 C.3   116  LEU116      0.0311
     76  CG        -9.0140   45.3350   -2.3780 C.3   116  LEU116      0.0022
     77  CD1       -9.5690   44.5850   -1.1900 C.3   116  LEU116      0.0001
     78  CD2      -10.1560   45.8750   -3.2000 C.3   116  LEU116      0.0001
     79  N         -5.6270   48.2500   -1.5320 N.am  117  PHE117     -0.1974
     80  CA        -4.9100   49.3270   -0.8590 C.3   117  PHE117      0.1639
     81  C         -3.6700   49.6950   -1.6630 C.2   117  PHE117      0.2290
     82  O         -2.6880   48.9500   -1.6830 O.2   117  PHE117     -0.2864
     83  CB        -4.5150   48.8950    0.5540 C.3   117  PHE117      0.0560
     84  CG        -5.6790   48.6630    1.5330 C.ar  117  PHE117     -0.0200
     85  CD1       -6.8970   49.2710    1.3120 C.ar  117  PHE117     -0.0042
     86  CD2       -5.4530   47.8760    2.6590 C.ar  117  PHE117     -0.0042
     87  CE1       -7.8910   49.0710    2.2470 C.ar  117  PHE117     -0.0003
     88  CE2       -6.4520   47.6880    3.5830 C.ar  117  PHE117     -0.0003
     89  CZ        -7.6740   48.3000    3.3590 C.ar  117  PHE117     -0.0000
     90  N         -9.6670   52.1950    9.7330 N.3   132  MET132     -0.1245
     91  CA        -9.9300   50.7580    9.7500 C.3   132  MET132      0.1570
     92  C        -10.3260   50.2940   11.1490 C.2   132  MET132      0.2261
     93  O        -10.6620   49.1250   11.3520 O.2   132  MET132     -0.2867
     94  CB        -8.6950   49.9880    9.2750 C.3   132  MET132      0.0387
     95  CG        -8.4240   50.3920    7.8210 C.3   132  MET132      0.0595
     96  SD        -7.2910   49.3050    7.0540 S.3   132  MET132     -0.1393
     97  CE        -7.9430   47.6830    7.1390 C.3   132  MET132      0.0692
@<TRIPOS>BOND
     1    70    68   ar
     2    68    69   ar
     3    68    67    1
     4    67    66    1
     5    66    63    1
     6    65    64    2
     7    63    64    1
     8    63    62    1
     9    64    71   am
    10    71    72    1
    11    78    76    1
    12    72    73    1
    13    72    75    1
    14    74    73    2
    15    76    75    1
    16    76    77    1
    17    73    79   am
    18    49    47   ar
    19    49    51   ar
    20    46    47   ar
    21    46    44   ar
    22    82    81    2
    23    81    80    1
    24    79    80    1
    25    47    45   ar
    26    51    50   ar
    27    44    43   ar
    28    80    83    1
    29    45    43   ar
    30    45    48   ar
    31    50    48   ar
    32    43    42    1
    33    41    40    2
    34    83    84    1
    35    85    84   ar
    36    85    87   ar
    37    40    39    1
    38    40    52   am
    39    42    39    1
    40    84    86   ar
    41    39    38    1
    42    55    54    2
    43    87    89   ar
    44    59    61   ar
    45    59    57   ar
    46    53    52    1
    47    53    54    1
    48    53    56    1
    49    86    88   ar
    50    61    60   ar
    51    89    88   ar
    52    57    56    1
    53    57    58   ar
    54    60    58   ar
    55    36    35    2
    56    34    35    1
    57    34    33    1
    58    34    37    1
    59     8     6    1
    60    96    97    1
    61    96    95    1
    62    23    22    1
    63     5     6    1
    64     5     7    1
    65     5     2    1
    66    20    19    2
    67    95    94    1
    68    22    24    1
    69    22    21    1
    70     1     2    1
    71    19    18    1
    72    19    25   am
    73     2     3    1
    74     3     4    2
    75    18    21    1
    76    18    17    1
    77    28    27    2
    78    16    14    1
    79    94    91    1
    80    27    26    1
    81    90    91    1
    82    91    92    1
    83    26    25    1
    84    26    29    1
    85    14    13    1
    86    14    15    1
    87    32    30    1
    88    13    10    1
    89    92    93    2
    90    29    30    1
    91    30    31    1
    92    10     9    1
    93    10    11    1
    94    11    12    2
