@<TRIPOS>MOLECULE
tmp/1izlB12.pdb
 109 103 0 0 0
SMALL
GASTEIGER

@<TRIPOS>ATOM
      1  N        -16.3220   29.7820   31.0940 N.3    68  ARG68      -0.1245
      2  CA       -17.0490   30.1690   29.8890 C.3    68  ARG68       0.1563
      3  C        -17.8530   29.0200   29.2830 C.2    68  ARG68       0.2260
      4  O        -19.0420   29.1730   28.9880 O.2    68  ARG68      -0.2867
      5  CB       -16.0790   30.7320   28.8460 C.3    68  ARG68       0.0307
      6  CG       -15.8700   32.2440   28.9640 C.3    68  ARG68       0.0489
      7  CD       -14.8960   32.6420   27.8580 C.3    68  ARG68       0.2205
      8  NE       -13.8910   31.5810   27.9460 N.pl3  68  ARG68      -0.0865
      9  CZ       -12.7620   31.4160   27.2660 C.cat  68  ARG68       0.5346
     10  NH1      -12.3850   32.2680   26.3210 N.pl3  68  ARG68       0.1354
     11  NH2      -11.9840   30.3550   27.5330 N.pl3  68  ARG68       0.1354
     12  N        -16.7830   44.0600   16.5750 N.3   140  ALA140     -0.1231
     13  CA       -16.6320   43.6130   17.9540 C.3   140  ALA140      0.1694
     14  C        -17.9400   43.8100   18.7170 C.2   140  ALA140      0.2592
     15  O        -18.1740   43.1590   19.7380 O.2   140  ALA140     -0.2718
     16  CB       -15.5040   44.3760   18.6330 C.3   140  ALA140      0.0304
     17  N        -18.7590   44.7430   18.2380 N.am  141  GLY141     -0.1957
     18  CA       -20.0400   45.0150   18.8660 C.3   141  GLY141      0.1869
     19  C        -21.0390   43.9210   18.5440 C.2   141  GLY141      0.2309
     20  O        -21.9190   43.6130   19.3480 O.2   141  GLY141     -0.2863
     21  N        -20.2660   40.9020   18.1880 N.3   143  LEU143     -0.1231
     22  CA       -19.8380   39.7640   18.9920 C.3   143  LEU143      0.1693
     23  C        -20.1150   40.0220   20.4720 C.2   143  LEU143      0.2592
     24  O        -20.1750   39.0860   21.2720 O.2   143  LEU143     -0.2718
     25  CB       -18.3440   39.5010   18.7810 C.3   143  LEU143      0.0284
     26  CG       -17.9390   38.9370   17.4200 C.3   143  LEU143      0.0019
     27  CD1      -16.4310   38.8830   17.3490 C.3   143  LEU143      0.0001
     28  CD2      -18.4940   37.5550   17.1910 C.3   143  LEU143      0.0001
     29  N        -20.2450   41.2960   20.8280 N.am  144  CYS144     -0.1970
     30  CA       -20.5150   41.7040   22.2030 C.3   144  CYS144      0.1712
     31  C        -21.9620   41.4220   22.5940 C.2   144  CYS144      0.2296
     32  O        -22.2340   40.9410   23.6970 O.2   144  CYS144     -0.2864
     33  CB       -20.2150   43.1940   22.3820 C.3   144  CYS144      0.0983
     34  SG       -20.2450   43.7480   24.0930 S.3   144  CYS144     -0.0798
     35  N        -24.7620   37.8560   23.8540 N.3   147  PHE147     -0.1241
     36  CA       -25.4370   37.3680   25.0530 C.3   147  PHE147      0.1605
     37  C        -26.9480   37.3100   24.8330 C.2   147  PHE147      0.2264
     38  O        -27.6660   36.6210   25.5600 O.2   147  PHE147     -0.2867
     39  CB       -25.1180   38.2700   26.2470 C.3   147  PHE147      0.0534
     40  CG       -23.8000   38.0000   26.8810 C.ar  147  PHE147     -0.0203
     41  CD1      -22.7490   37.4950   26.1260 C.ar  147  PHE147     -0.0042
     42  CD2      -23.5960   38.3320   28.2370 C.ar  147  PHE147     -0.0042
     43  CE1      -21.5230   37.2560   26.7030 C.ar  147  PHE147     -0.0003
     44  CE2      -22.3750   38.0920   28.8140 C.ar  147  PHE147     -0.0003
     45  CZ       -21.3270   37.5320   28.0390 C.ar  147  PHE147     -0.0000
     46  N        -15.9960   37.9270   40.2130 N.3   180  TYR180     -0.1241
     47  CA       -17.2560   38.6460   40.0110 C.3   180  TYR180      0.1605
     48  C        -18.0210   38.8790   41.3110 C.2   180  TYR180      0.2264
     49  O        -18.7920   38.0290   41.7550 O.2   180  TYR180     -0.2867
     50  CB       -18.1480   37.9110   39.0030 C.3   180  TYR180      0.0534
     51  CG       -17.5380   37.7580   37.6280 C.ar  180  TYR180     -0.0201
     52  CD1      -17.1250   36.5110   37.1630 C.ar  180  TYR180     -0.0009
     53  CD2      -17.3850   38.8580   36.7870 C.ar  180  TYR180     -0.0009
     54  CE1      -16.5730   36.3620   35.8930 C.ar  180  TYR180      0.0417
     55  CE2      -16.8370   38.7230   35.5170 C.ar  180  TYR180      0.0417
     56  CZ       -16.4330   37.4740   35.0750 C.ar  180  TYR180      0.1957
     57  OH       -15.8980   37.3490   33.8150 O.3   180  TYR180     -0.2866
     58  N        -22.9200   43.2260   29.0610 N.3   188  HIS188     -0.1241
     59  CA       -22.3240   43.0510   27.7380 C.3   188  HIS188      0.1621
     60  C        -23.3630   43.2530   26.6400 C.2   188  HIS188      0.2264
     61  O        -23.0280   43.6570   25.5280 O.2   188  HIS188     -0.2867
     62  CB       -21.6880   41.6650   27.6030 C.3   188  HIS188      0.0745
     63  CG       -20.4040   41.5080   28.3590 C.ar  188  HIS188      0.0817
     64  ND1      -19.1920   41.9510   27.8690 N.ar  188  HIS188     -0.2268
     65  CD2      -20.1400   40.9460   29.5620 C.ar  188  HIS188      0.1154
     66  CE1      -18.2390   41.6670   28.7380 C.ar  188  HIS188      0.1986
     67  NE2      -18.7860   41.0570   29.7730 N.ar  188  HIS188     -0.2212
     68  N        -22.7290   47.3640   26.8070 N.3   192  ALA192     -0.1245
     69  CA       -21.7880   47.2480   25.6980 C.3   192  ALA192      0.1562
     70  C        -22.4840   46.9850   24.3650 C.2   192  ALA192      0.2260
     71  O        -21.8930   47.1820   23.3010 O.2   192  ALA192     -0.2867
     72  CB       -20.7720   46.1520   25.9860 C.3   192  ALA192      0.0290
     73  N         -5.4820   49.2500   31.4460 N.3   234  PHE234     -0.1227
     74  CA        -6.7830   49.4210   32.0820 C.3   234  PHE234      0.1736
     75  C         -7.6000   48.1320   32.0400 C.2   234  PHE234      0.2595
     76  O         -8.6130   48.0050   32.7330 O.2   234  PHE234     -0.2718
     77  CB        -7.5590   50.5510   31.4010 C.3   234  PHE234      0.0547
     78  CG        -7.3040   51.9720   31.8100 C.ar  234  PHE234     -0.0202
     79  CD1       -6.3150   52.2210   32.6570 C.ar  234  PHE234     -0.0042
     80  CD2       -8.0010   53.0180   31.2660 C.ar  234  PHE234     -0.0042
     81  CE1       -6.0150   53.5480   33.0730 C.ar  234  PHE234     -0.0003
     82  CE2       -7.6700   54.3460   31.6420 C.ar  234  PHE234     -0.0003
     83  CZ        -6.7220   54.5810   32.5510 C.ar  234  PHE234     -0.0000
     84  N         -7.1800   47.1980   31.1920 N.am  235  ALA235     -0.1980
     85  CA        -7.8620   45.9170   31.0500 C.3   235  ALA235      0.1597
     86  C         -7.2180   44.8430   31.9210 C.2   235  ALA235      0.2287
     87  O         -7.8730   43.8710   32.3040 O.2   235  ALA235     -0.2864
     88  CB        -7.8620   45.4830   29.5910 C.3   235  ALA235      0.0319
     89  N         -7.8860   45.7190   35.8360 N.3   238  VAL238     -0.1231
     90  CA        -9.2660   45.4250   36.2030 C.3   238  VAL238      0.1692
     91  C         -9.4920   43.9180   36.2970 C.2   238  VAL238      0.2591
     92  O        -10.3500   43.4550   37.0520 O.2   238  VAL238     -0.2718
     93  CB       -10.2520   46.0100   35.1750 C.3   238  VAL238      0.0266
     94  CG1      -11.6630   45.4330   35.3910 C.3   238  VAL238      0.0020
     95  CG2      -10.2690   47.5300   35.2660 C.3   238  VAL238      0.0020
     96  N         -8.7450   43.1640   35.4950 N.am  239  VAL239     -0.1980
     97  CA        -8.8470   41.7090   35.4760 C.3   239  VAL239      0.1595
     98  C         -8.2190   41.1000   36.7260 C.2   239  VAL239      0.2287
     99  O         -8.7720   40.1700   37.3170 O.2   239  VAL239     -0.2864
    100  CB        -8.1600   41.1150   34.2320 C.3   239  VAL239      0.0276
    101  CG1       -7.6210   39.6580   34.3250 C.3   239  VAL239      0.0022
    102  CG2       -9.0180   41.3110   32.9840 C.3   239  VAL239      0.0022
    103  N        -10.0530   41.7150   39.9910 N.3   242  THR242     -0.1218
    104  CA       -11.2940   40.9590   40.1170 C.3   242  THR242      0.1862
    105  C        -11.1520   39.8510   41.1570 C.2   242  THR242      0.2287
    106  O        -12.1090   39.5260   41.8630 O.2   242  THR242     -0.2866
    107  CB       -11.7040   40.3340   38.7720 C.3   242  THR242      0.1770
    108  OG1      -11.8130   41.4090   37.8470 O.3   242  THR242     -0.2211
    109  CG2      -13.0100   39.5690   38.8710 C.3   242  THR242      0.0375
@<TRIPOS>BOND
     1    12    13    1
     2    28    26    1
     3    27    26    1
     4    26    25    1
     5    13    16    1
     6    13    14    1
     7    21    22    1
     8    17    14   am
     9    17    18    1
    10    19    18    1
    11    19    20    2
    12    14    15    2
    13    25    22    1
    14    22    23    1
    15    23    29   am
    16    23    24    2
    17    29    30    1
    18    30    33    1
    19    30    31    1
    20    33    34    1
    21    31    32    2
    22    71    70    2
    23    35    36    1
    24    70    69    1
    25    37    36    1
    26    37    38    2
    27    36    39    1
    28    61    60    2
    29    69    72    1
    30    69    68    1
    31    41    43   ar
    32    41    40   ar
    33    39    40    1
    34    10     9    1
    35    60    59    1
    36    43    45   ar
    37    40    42   ar
    38     9    11    1
    39     9     8    2
    40    62    59    1
    41    62    63    1
    42    59    58    1
    43     7     8    1
    44     7     6    1
    45    64    63   ar
    46    64    66   ar
    47    45    44   ar
    48    42    44   ar
    49    63    65   ar
    50    66    67   ar
    51     5     6    1
    52     5     2    1
    53     4     3    2
    54     3     2    1
    55    65    67   ar
    56    88    85    1
    57     2     1    1
    58    85    84    1
    59    85    86    1
    60    84    75   am
    61    80    82   ar
    62    80    78   ar
    63    77    78    1
    64    77    74    1
    65    73    74    1
    66    82    83   ar
    67    78    79   ar
    68    86    87    2
    69    75    74    1
    70    75    76    2
    71    83    81   ar
    72    79    81   ar
    73   102   100    1
    74    57    56    1
    75   100   101    1
    76   100    97    1
    77    56    55   ar
    78    56    54   ar
    79    93    95    1
    80    93    94    1
    81    93    90    1
    82    97    96    1
    83    97    98    1
    84    96    91   am
    85    55    53   ar
    86    89    90    1
    87    54    52   ar
    88    90    91    1
    89    91    92    2
    90    98    99    2
    91    53    51   ar
    92    52    51   ar
    93    51    50    1
    94   108   107    1
    95   107   109    1
    96   107   104    1
    97    50    47    1
    98   103   104    1
    99    47    46    1
   100    47    48    1
   101   104   105    1
   102   105   106    2
   103    48    49    2
