@<TRIPOS>MOLECULE
tmp/1izlB06.pdb
 96 90 0 0 0
SMALL
GASTEIGER

@<TRIPOS>ATOM
      1  N        -14.4640   47.9200   15.2130 N.3   137  LEU137     -0.1245
      2  CA       -15.2450   48.1930   16.4150 C.3   137  LEU137      0.1561
      3  C        -16.6800   47.7030   16.2500 C.2   137  LEU137      0.2260
      4  O        -17.2550   47.1280   17.1750 O.2   137  LEU137     -0.2867
      5  CB       -15.2420   49.6920   16.7230 C.3   137  LEU137      0.0270
      6  CG       -14.1750   50.2420   17.6450 C.3   137  LEU137      0.0019
      7  CD1      -14.5260   51.7350   17.7780 C.3   137  LEU137      0.0001
      8  CD2      -14.2880   49.5600   18.9980 C.3   137  LEU137      0.0001
      9  N        -23.6380   50.6570   23.4260 N.3   195  VAL195     -0.1245
     10  CA       -22.5240   51.5760   23.2150 C.3   195  VAL195      0.1561
     11  C        -21.6370   51.1330   22.0540 C.2   195  VAL195      0.2260
     12  O        -20.8420   51.9190   21.5380 O.2   195  VAL195     -0.2867
     13  CB       -21.6530   51.6990   24.4810 C.3   195  VAL195      0.0252
     14  CG1      -20.3250   52.4070   24.1560 C.3   195  VAL195      0.0019
     15  CG2      -22.4100   52.4450   25.5720 C.3   195  VAL195      0.0019
     16  N        -23.2630   52.3920   18.6950 N.3   198  ILE198     -0.1231
     17  CA       -23.4810   53.8330   18.7160 C.3   198  ILE198      0.1692
     18  C        -22.1570   54.5860   18.6280 C.2   198  ILE198      0.2591
     19  O        -22.0890   55.6780   18.0560 O.2   198  ILE198     -0.2718
     20  CB       -24.2200   54.2690   19.9950 C.3   198  ILE198      0.0266
     21  CG1      -25.6680   53.7350   20.0030 C.3   198  ILE198      0.0019
     22  CG2      -24.2400   55.7970   20.0440 C.3   198  ILE198      0.0020
     23  CD1      -26.6190   54.6420   20.7590 C.3   198  ILE198      0.0001
     24  N        -21.1250   54.0230   19.2470 N.am  199  ALA199     -0.1980
     25  CA       -19.7940   54.6170   19.2370 C.3   199  ALA199      0.1597
     26  C        -18.9340   53.9690   18.1550 C.2   199  ALA199      0.2287
     27  O        -17.8710   54.4860   17.8030 O.2   199  ALA199     -0.2864
     28  CB       -19.1370   54.4540   20.6020 C.3   199  ALA199      0.0319
     29  N        -20.8830   54.8740   14.3230 N.3   202  PHE202     -0.1227
     30  CA       -20.6670   56.2770   13.9970 C.3   202  PHE202      0.1736
     31  C        -19.1960   56.5310   13.6830 C.2   202  PHE202      0.2595
     32  O        -18.8430   57.5640   13.1090 O.2   202  PHE202     -0.2718
     33  CB       -21.1100   57.1630   15.1620 C.3   202  PHE202      0.0547
     34  CG       -21.2270   58.6150   14.8150 C.ar  202  PHE202     -0.0202
     35  CD1      -22.0710   59.0580   13.8340 C.ar  202  PHE202     -0.0042
     36  CD2      -20.4130   59.4930   15.4190 C.ar  202  PHE202     -0.0042
     37  CE1      -22.0800   60.4510   13.5020 C.ar  202  PHE202     -0.0003
     38  CE2      -20.4630   60.8800   15.1150 C.ar  202  PHE202     -0.0003
     39  CZ       -21.3120   61.3220   14.1550 C.ar  202  PHE202     -0.0000
     40  N        -18.3420   55.6070   14.1150 N.am  203  HIS203     -0.1975
     41  CA       -16.9050   55.7020   13.8870 C.3   203  HIS203      0.1656
     42  C        -16.5370   55.2560   12.4750 C.2   203  HIS203      0.2291
     43  O        -15.5150   55.6780   11.9290 O.2   203  HIS203     -0.2864
     44  CB       -16.1510   54.8480   14.9110 C.3   203  HIS203      0.0771
     45  CG       -14.6550   55.0920   14.9610 C.ar  203  HIS203      0.0820
     46  ND1      -14.1270   56.3100   15.2210 N.ar  203  HIS203     -0.2267
     47  CD2      -13.5800   54.2870   14.7440 C.ar  203  HIS203      0.1154
     48  CE1      -12.8020   56.2040   15.2210 C.ar  203  HIS203      0.1986
     49  NE2      -12.4300   55.0050   14.9600 N.ar  203  HIS203     -0.2212
     50  N        -18.1120   59.5220    8.8880 N.3   206  VAL206     -0.1245
     51  CA       -17.5840   60.8460    9.2250 C.3   206  VAL206      0.1561
     52  C        -16.0950   61.0110    8.9090 C.2   206  VAL206      0.2260
     53  O        -15.7380   61.7750    8.0090 O.2   206  VAL206     -0.2867
     54  CB       -17.8410   61.2080   10.7050 C.3   206  VAL206      0.0252
     55  CG1      -17.6530   62.7210   10.8330 C.3   206  VAL206      0.0019
     56  CG2      -19.2860   60.8350   11.0350 C.3   206  VAL206      0.0019
     57  N        -13.4310   62.4920   10.6510 N.3   208  PRO208     -0.2116
     58  CA       -13.0040   63.8860   10.8170 C.3   208  PRO208      0.1372
     59  C        -11.5110   64.0560   10.5600 C.2   208  PRO208      0.2244
     60  O        -10.6820   63.4010   11.1940 O.2   208  PRO208     -0.2868
     61  CB       -13.3450   64.1770   12.2820 C.3   208  PRO208      0.0268
     62  CG       -14.4360   63.1900   12.6000 C.3   208  PRO208      0.0207
     63  CD       -13.9370   61.9520   11.9230 C.3   208  PRO208      0.0892
     64  N         -6.0020   67.9560   15.6370 N.3   212  LEU212     -0.1245
     65  CA        -5.8740   67.3370   16.9600 C.3   212  LEU212      0.1561
     66  C         -4.4440   67.3880   17.5070 C.2   212  LEU212      0.2260
     67  O         -3.6780   66.4350   17.3640 O.2   212  LEU212     -0.2867
     68  CB        -6.3770   65.8880   16.9250 C.3   212  LEU212      0.0270
     69  CG        -7.8860   65.6960   16.7730 C.3   212  LEU212      0.0019
     70  CD1       -8.1710   64.2210   16.6130 C.3   212  LEU212      0.0001
     71  CD2       -8.6450   66.2200   17.9640 C.3   212  LEU212      0.0001
     72  N         -1.3220   63.8610   15.1680 N.3   216  LEU216     -0.1231
     73  CA        -2.2980   62.8180   15.4650 C.3   216  LEU216      0.1693
     74  C         -1.8910   61.4770   14.8470 C.2   216  LEU216      0.2591
     75  O         -0.7230   61.0870   14.9040 O.2   216  LEU216     -0.2718
     76  CB        -3.6870   63.2370   14.9640 C.3   216  LEU216      0.0284
     77  CG        -4.9650   63.2000   15.8140 C.3   216  LEU216      0.0019
     78  CD1       -6.0440   62.6060   14.9470 C.3   216  LEU216      0.0001
     79  CD2       -4.8070   62.4650   17.1040 C.3   216  LEU216      0.0001
     80  N         -2.8610   60.7630   14.2810 N.am  217  ARG217     -0.1980
     81  CA        -2.6000   59.4710   13.6500 C.3   217  ARG217      0.1597
     82  C         -2.9850   59.5120   12.1720 C.2   217  ARG217      0.2287
     83  O         -3.6180   58.5900   11.6520 O.2   217  ARG217     -0.2864
     84  CB        -3.3710   58.3630   14.3730 C.3   217  ARG217      0.0334
     85  CG        -4.8920   58.4560   14.3210 C.3   217  ARG217      0.0492
     86  CD        -5.5670   57.2610   15.0240 C.3   217  ARG217      0.2205
     87  NE        -7.0180   57.4040   14.9990 N.pl3 217  ARG217     -0.0865
     88  CZ        -7.7180   58.0640   15.9150 C.cat 217  ARG217      0.5346
     89  NH1       -7.1020   58.5930   16.9710 N.pl3 217  ARG217      0.1354
     90  NH2       -9.0390   58.1600   15.7910 N.pl3 217  ARG217      0.1354
     91  N         -2.2610   53.5390   21.1870 N.3   227  SER227     -0.1217
     92  CA        -3.6190   53.6340   21.7100 C.3   227  SER227      0.1889
     93  C         -4.0820   52.2700   22.2120 C.2   227  SER227      0.2288
     94  O         -5.0880   52.1640   22.9170 O.2   227  SER227     -0.2866
     95  CB        -4.5700   54.1410   20.6250 C.3   227  SER227      0.2089
     96  OG        -4.2820   55.4560   20.3050 O.3   227  SER227     -0.2183
@<TRIPOS>BOND
     1    53    52    2
     2    50    51    1
     3    52    51    1
     4    51    54    1
     5    59    58    1
     6    59    60    2
     7    57    58    1
     8    57    63    1
     9    54    55    1
    10    54    56    1
    11    58    61    1
    12    83    82    2
    13    63    62    1
    14    43    42    2
    15    82    81    1
    16    61    62    1
    17    42    41    1
    18    32    31    2
    19    37    35   ar
    20    37    39   ar
    21    81    80    1
    22    81    84    1
    23    31    30    1
    24    31    40   am
    25    35    34   ar
    26    41    40    1
    27    41    44    1
    28    30    29    1
    29    30    33    1
    30    39    38   ar
    31    80    74   am
    32    85    84    1
    33    85    86    1
    34    47    49   ar
    35    47    45   ar
    36    34    33    1
    37    34    36   ar
    38    74    75    2
    39    74    73    1
    40    44    45    1
    41    78    77    1
    42    49    48   ar
    43    45    46   ar
    44    76    73    1
    45    76    77    1
    46    87    86    1
    47    87    88    2
    48    38    36   ar
    49    72    73    1
    50     1     2    1
    51    46    48   ar
    52    64    65    1
    53    90    88    1
    54    77    79    1
    55    88    89    1
    56     3     2    1
    57     3     4    2
    58     2     5    1
    59    70    69    1
    60     5     6    1
    61    69    68    1
    62    69    71    1
    63    68    65    1
    64    65    66    1
    65    67    66    2
    66     6     7    1
    67     6     8    1
    68    27    26    2
    69    19    18    2
    70    26    25    1
    71    18    17    1
    72    18    24   am
    73    16    17    1
    74    17    20    1
    75    25    24    1
    76    25    28    1
    77    20    21    1
    78    20    22    1
    79    21    23    1
    80    96    95    1
    81    95    92    1
    82    91    92    1
    83    12    11    2
    84    92    93    1
    85    11    10    1
    86    93    94    2
    87    10     9    1
    88    10    13    1
    89    14    13    1
    90    13    15    1
