@<TRIPOS>MOLECULE
tmp/1izlC00.pdb
 103 102 0 0 0
SMALL
GASTEIGER

@<TRIPOS>ATOM
      1  N         54.8280   70.3150   48.2800 N.3   193  GLU193     -0.1245
      2  CA        53.6260   69.4930   48.3750 C.3   193  GLU193      0.1567
      3  C         53.9700   68.0420   48.6960 C.2   193  GLU193      0.2260
      4  O         53.2110   67.3530   49.3770 O.2   193  GLU193     -0.2867
      5  CB        52.8320   69.5620   47.0680 C.3   193  GLU193      0.0388
      6  CG        51.5800   68.7050   47.1920 C.3   193  GLU193      0.1160
      7  CD        50.4740   69.5710   47.7780 C.2   193  GLU193      0.3649
      8  OE1       50.4400   70.7630   47.3970 O.co2 193  GLU193     -0.2457
      9  OE2       49.7000   69.0170   48.5830 O.co2 193  GLU193     -0.2457
     10  N         54.6500   67.7780   52.3030 N.3   196  LEU196     -0.1245
     11  CA        53.4380   67.9900   53.0850 C.3   196  LEU196      0.1561
     12  C         52.5680   66.7360   53.1110 C.2   196  LEU196      0.2260
     13  O         51.8720   66.4770   54.0930 O.2   196  LEU196     -0.2867
     14  CB        52.6390   69.1650   52.5180 C.3   196  LEU196      0.0270
     15  CG        51.3840   69.6000   53.2590 C.3   196  LEU196      0.0019
     16  CD1       51.7350   70.2870   54.5730 C.3   196  LEU196      0.0001
     17  CD2       50.5400   70.5280   52.3880 C.3   196  LEU196      0.0001
     18  N         51.8430   64.2800   56.4110 N.3   200  LEU200     -0.1245
     19  CA        50.4700   64.0050   56.8230 C.3   200  LEU200      0.1561
     20  C         50.1860   62.5070   56.7860 C.2   200  LEU200      0.2260
     21  O         49.3780   62.0030   57.5670 O.2   200  LEU200     -0.2867
     22  CB        49.4850   64.7420   55.9160 C.3   200  LEU200      0.0270
     23  CG        49.1910   66.1930   56.3020 C.3   200  LEU200      0.0019
     24  CD1       48.2880   66.8130   55.2510 C.3   200  LEU200      0.0001
     25  CD2       48.4350   66.2240   57.6290 C.3   200  LEU200      0.0001
     26  N         40.3800   60.4840   56.7120 N.3   252  PHE252     -0.1227
     27  CA        39.8460   61.3520   55.6690 C.3   252  PHE252      0.1736
     28  C         40.9340   62.3040   55.1760 C.2   252  PHE252      0.2595
     29  O         40.9540   62.6830   54.0030 O.2   252  PHE252     -0.2718
     30  CB        38.6480   62.1470   56.2000 C.3   252  PHE252      0.0547
     31  CG        37.9580   62.9850   55.1550 C.ar  252  PHE252     -0.0202
     32  CD1       37.2230   62.3870   54.1370 C.ar  252  PHE252     -0.0042
     33  CD2       38.0410   64.3710   55.1950 C.ar  252  PHE252     -0.0042
     34  CE1       36.5780   63.1600   53.1710 C.ar  252  PHE252     -0.0003
     35  CE2       37.4010   65.1550   54.2340 C.ar  252  PHE252     -0.0003
     36  CZ        36.6690   64.5470   53.2210 C.ar  252  PHE252     -0.0000
     37  N         41.8060   62.7210   56.0900 N.am  253  PHE253     -0.1976
     38  CA        42.9030   63.6230   55.7540 C.3   253  PHE253      0.1639
     39  C         44.0240   62.8670   55.0480 C.2   253  PHE253      0.2290
     40  O         44.7770   63.4520   54.2680 O.2   253  PHE253     -0.2864
     41  CB        43.4440   64.3010   57.0150 C.3   253  PHE253      0.0560
     42  CG        42.7600   65.5270   57.5450 C.ar  253  PHE253     -0.0200
     43  CD1       41.6230   65.9120   56.9830 C.ar  253  PHE253     -0.0042
     44  CD2       43.2270   66.1990   58.6430 C.ar  253  PHE253     -0.0042
     45  CE1       40.9200   67.0590   57.4480 C.ar  253  PHE253     -0.0003
     46  CE2       42.5010   67.3120   59.1390 C.ar  253  PHE253     -0.0003
     47  CZ        41.3970   67.7370   58.5200 C.ar  253  PHE253     -0.0000
     48  N         43.4800   60.2910   53.0710 N.3   255  VAL255     -0.1231
     49  CA        42.9580   59.9630   51.7490 C.3   255  VAL255      0.1692
     50  C         43.0640   61.1780   50.8300 C.2   255  VAL255      0.2593
     51  O         43.0750   61.0430   49.6040 O.2   255  VAL255     -0.2718
     52  CB        41.4850   59.5190   51.8210 C.3   255  VAL255      0.0266
     53  CG1       40.8620   59.4850   50.4130 C.3   255  VAL255      0.0020
     54  CG2       41.3770   58.1570   52.4940 C.3   255  VAL255      0.0020
     55  N         43.0840   62.3620   51.4350 N.am  256  GLY256     -0.1942
     56  CA        43.1950   63.5930   50.6770 C.3   256  GLY256      0.2014
     57  C         44.6350   64.0510   50.5390 C.2   256  GLY256      0.2638
     58  O         44.9320   64.9480   49.7470 O.2   256  GLY256     -0.2714
     59  N         45.5210   63.4640   51.3390 N.am  257  HIS257     -0.1973
     60  CA        46.9410   63.8020   51.3100 C.3   257  HIS257      0.1656
     61  C         47.6900   62.9280   50.3090 C.2   257  HIS257      0.2291
     62  O         48.5530   63.4140   49.5750 O.2   257  HIS257     -0.2864
     63  CB        47.5560   63.6410   52.7020 C.3   257  HIS257      0.0771
     64  CG        46.8640   64.4730   53.6980 C.ar  257  HIS257      0.0820
     65  ND1       46.8920   64.1020   55.0250 N.ar  257  HIS257     -0.2267
     66  CD2       46.1470   65.6140   53.4930 C.ar  257  HIS257      0.1154
     67  CE1       46.1620   65.0370   55.6000 C.ar  257  HIS257      0.1986
     68  NE2       45.6940   65.9370   54.7280 N.ar  257  HIS257     -0.2212
     69  N         46.3440   61.4650   47.8180 N.3   259  TRP259     -0.1227
     70  CA        45.7880   61.7830   46.5080 C.3   259  TRP259      0.1737
     71  C         46.3560   63.1130   46.0200 C.2   259  TRP259      0.2595
     72  O         46.3830   63.3860   44.8180 O.2   259  TRP259     -0.2718
     73  CB        44.2610   61.8640   46.5840 C.3   259  TRP259      0.0564
     74  CG        43.5650   61.8710   45.2720 C.ar  259  TRP259      0.0003
     75  CD1       44.0970   61.6480   44.0170 C.ar  259  TRP259      0.0946
     76  CD2       42.1410   62.1040   45.0690 C.ar  259  TRP259      0.0152
     77  NE1       43.0580   61.6720   43.0730 N.ar  259  TRP259     -0.2442
     78  CE2       41.8970   61.9870   43.6800 C.ar  259  TRP259      0.0810
     79  CE3       41.0880   62.3420   45.9600 C.ar  259  TRP259      0.0012
     80  CZ2       40.5940   62.1130   43.1530 C.ar  259  TRP259      0.0191
     81  CZ3       39.8170   62.4590   45.4380 C.ar  259  TRP259      0.0001
     82  CH2       39.5540   62.3220   44.0790 C.ar  259  TRP259      0.0015
     83  N         46.7670   63.9510   46.9690 N.am  260  HIS260     -0.1975
     84  CA        47.3450   65.2540   46.6630 C.3   260  HIS260      0.1656
     85  C         48.8080   65.1070   46.2510 C.2   260  HIS260      0.2291
     86  O         49.3800   66.0060   45.6340 O.2   260  HIS260     -0.2864
     87  CB        47.2420   66.1800   47.8770 C.3   260  HIS260      0.0771
     88  CG        45.8870   66.8520   48.0670 C.ar  260  HIS260      0.0820
     89  ND1       45.6510   67.8990   48.9540 N.ar  260  HIS260     -0.2267
     90  CD2       44.7180   66.5410   47.3820 C.ar  260  HIS260      0.1154
     91  CE1       44.3680   68.2240   48.8080 C.ar  260  HIS260      0.1986
     92  NE2       43.8090   67.4710   47.9190 N.ar  260  HIS260     -0.2212
     93  N         49.4020   65.0680   42.5730 N.3   263  ARG263     -0.1245
     94  CA        49.2500   66.3570   41.9030 C.3   263  ARG263      0.1563
     95  C         50.5850   67.0950   41.8300 C.2   263  ARG263      0.2260
     96  O         50.7140   68.0960   41.1230 O.2   263  ARG263     -0.2867
     97  CB        48.2210   67.2200   42.6400 C.3   263  ARG263      0.0307
     98  CG        46.8390   66.5890   42.6680 C.3   263  ARG263      0.0489
     99  CD        45.9960   67.4650   43.5860 C.3   263  ARG263      0.2205
    100  NE        44.8750   66.6760   44.0880 N.pl3 263  ARG263     -0.0865
    101  CZ        43.7320   66.5400   43.4110 C.cat 263  ARG263      0.5346
    102  NH1       43.5010   67.1950   42.2700 N.pl3 263  ARG263      0.1354
    103  NH2       42.8460   65.7040   43.9430 N.pl3 263  ARG263      0.1354
@<TRIPOS>BOND
     1    96    95    2
     2    95    94    1
     3    94    93    1
     4    94    97    1
     5   102   101    1
     6    97    98    1
     7    98    99    1
     8    77    78   ar
     9    77    75   ar
    10    80    78   ar
    11    80    82   ar
    12   101   103    1
    13   101   100    2
    14    99   100    1
    15    78    76   ar
    16    75    74   ar
    17    82    81   ar
    18    72    71    2
    19    76    74   ar
    20    76    79   ar
    21    74    73    1
    22    81    79   ar
    23    86    85    2
    24    71    70    1
    25    71    83   am
    26    85    84    1
    27    70    73    1
    28    70    69    1
    29    84    83    1
    30    84    87    1
    31     5     6    1
    32     5     2    1
    33     6     7    1
    34    90    92   ar
    35    90    88   ar
    36     8     7   ar
    37     7     9   ar
    38    87    88    1
    39    92    91   ar
    40    88    89   ar
    41     1     2    1
    42     2     3    1
    43     3     4    2
    44    91    89   ar
    45    62    61    2
    46    51    50    2
    47    58    57    2
    48    61    60    1
    49    53    52    1
    50    57    56    1
    51    57    59   am
    52    56    55    1
    53    50    55   am
    54    50    49    1
    55    60    59    1
    56    60    63    1
    57    49    52    1
    58    49    48    1
    59    52    54    1
    60    10    11    1
    61    17    15    1
    62    14    11    1
    63    14    15    1
    64    63    64    1
    65    11    12    1
    66    12    13    2
    67    34    36   ar
    68    34    32   ar
    69    36    35   ar
    70    15    16    1
    71    66    64   ar
    72    66    68   ar
    73    64    65   ar
    74    29    28    2
    75    32    31   ar
    76    35    33   ar
    77    40    39    2
    78    68    67   ar
    79    65    67   ar
    80    39    38    1
    81    31    33   ar
    82    31    30    1
    83    28    27    1
    84    28    37   am
    85    24    23    1
    86    27    30    1
    87    27    26    1
    88    38    37    1
    89    38    41    1
    90    22    23    1
    91    22    19    1
    92    23    25    1
    93    18    19    1
    94    20    19    1
    95    20    21    2
    96    43    45   ar
    97    43    42   ar
    98    41    42    1
    99    45    47   ar
   100    42    44   ar
   101    47    46   ar
   102    44    46   ar
