@<TRIPOS>MOLECULE
tmp/1izlD00.pdb
 145 139 0 0 0
SMALL
GASTEIGER

@<TRIPOS>ATOM
      1  N          8.7900   52.8900   41.0580 N.3   104  VAL104     -0.1245
      2  CA         9.2440   52.8220   42.4430 C.3   104  VAL104      0.1561
      3  C          8.1700   53.2370   43.4490 C.2   104  VAL104      0.2260
      4  O          8.2030   52.8200   44.6090 O.2   104  VAL104     -0.2867
      5  CB        10.4960   53.6940   42.6570 C.3   104  VAL104      0.0252
      6  CG1       10.9810   53.6450   44.1020 C.3   104  VAL104      0.0019
      7  CG2       11.6170   53.1680   41.7570 C.3   104  VAL104      0.0019
      8  N          4.4390   50.8500   42.8830 N.3   107  SER107     -0.1202
      9  CA         4.5170   49.4780   43.3680 C.3   107  SER107      0.2020
     10  C          4.1830   49.4050   44.8540 C.2   107  SER107      0.2618
     11  O          3.5930   48.4270   45.3210 O.2   107  SER107     -0.2717
     12  CB         5.9150   48.9080   43.1230 C.3   107  SER107      0.2103
     13  OG         6.8950   49.5050   43.9010 O.3   107  SER107     -0.2182
     14  N          4.5960   50.4260   45.5990 N.am  108  VAL108     -0.1979
     15  CA         4.3450   50.4850   47.0350 C.3   108  VAL108      0.1595
     16  C          2.9690   51.0630   47.3650 C.2   108  VAL108      0.2287
     17  O          2.6470   51.2810   48.5370 O.2   108  VAL108     -0.2864
     18  CB         5.4220   51.3260   47.7550 C.3   108  VAL108      0.0276
     19  CG1        5.1690   51.4060   49.2570 C.3   108  VAL108      0.0022
     20  CG2        6.7850   50.6660   47.5330 C.3   108  VAL108      0.0022
     21  N          3.1440   51.5920   53.6540 N.3   120  PHE120     -0.1241
     22  CA         4.5650   51.8880   53.8210 C.3   120  PHE120      0.1605
     23  C          4.7960   53.2110   54.5570 C.2   120  PHE120      0.2264
     24  O          3.8480   53.9250   54.8900 O.2   120  PHE120     -0.2867
     25  CB         5.2300   51.9360   52.4390 C.3   120  PHE120      0.0534
     26  CG         6.7070   51.6420   52.4530 C.ar  120  PHE120     -0.0203
     27  CD1        7.1750   50.3680   52.7570 C.ar  120  PHE120     -0.0042
     28  CD2        7.6300   52.6350   52.1310 C.ar  120  PHE120     -0.0042
     29  CE1        8.5390   50.0840   52.7380 C.ar  120  PHE120     -0.0003
     30  CE2        8.9950   52.3620   52.1100 C.ar  120  PHE120     -0.0003
     31  CZ         9.4510   51.0820   52.4130 C.ar  120  PHE120     -0.0000
     32  N         10.3100   50.0320   57.7060 N.3   130  LEU130     -0.1231
     33  CA         9.3720   49.2660   56.8940 C.3   130  LEU130      0.1693
     34  C         10.1200   48.4560   55.8360 C.2   130  LEU130      0.2592
     35  O          9.5960   47.4760   55.3030 O.2   130  LEU130     -0.2718
     36  CB         8.3590   50.1990   56.2270 C.3   130  LEU130      0.0284
     37  CG         7.1200   50.5190   57.1070 C.3   130  LEU130      0.0019
     38  CD1        6.1790   49.3340   57.1050 C.3   130  LEU130      0.0001
     39  CD2        7.4960   50.8470   58.5450 C.3   130  LEU130      0.0001
     40  N         11.3290   48.9010   55.5060 N.am  131  PHE131     -0.1962
     41  CA        12.1650   48.2120   54.5300 C.3   131  PHE131      0.1771
     42  C         13.0770   47.2220   55.2520 C.2   131  PHE131      0.2619
     43  O         13.8330   46.4770   54.6220 O.2   131  PHE131     -0.2715
     44  CB        13.0050   49.2170   53.7380 C.3   131  PHE131      0.0574
     45  CG        13.9300   48.6190   52.7010 C.ar  131  PHE131     -0.0200
     46  CD1       13.4710   47.8220   51.6890 C.ar  131  PHE131     -0.0042
     47  CD2       15.2710   48.9060   52.7150 C.ar  131  PHE131     -0.0042
     48  CE1       14.2730   47.3250   50.6830 C.ar  131  PHE131     -0.0003
     49  CE2       16.1280   48.4260   51.6940 C.ar  131  PHE131     -0.0003
     50  CZ        15.6110   47.6240   50.7340 C.ar  131  PHE131     -0.0000
     51  N         13.0280   47.2550   56.5810 N.am  132  PHE132     -0.1974
     52  CA        13.8270   46.3690   57.4190 C.3   132  PHE132      0.1639
     53  C         12.9700   45.2070   57.9160 C.2   132  PHE132      0.2290
     54  O         13.4270   44.0640   57.9620 O.2   132  PHE132     -0.2864
     55  CB        14.4020   47.1380   58.6100 C.3   132  PHE132      0.0560
     56  CG        15.2410   46.3220   59.5690 C.ar  132  PHE132     -0.0200
     57  CD1       16.3460   45.6280   59.1600 C.ar  132  PHE132     -0.0042
     58  CD2       14.9430   46.2970   60.9070 C.ar  132  PHE132     -0.0042
     59  CE1       17.1780   44.9400   60.0180 C.ar  132  PHE132     -0.0003
     60  CE2       15.7770   45.6110   61.8250 C.ar  132  PHE132     -0.0003
     61  CZ        16.8430   44.9270   61.3490 C.ar  132  PHE132     -0.0000
     62  N          9.8970   44.6020   56.5590 N.3   134  GLY134     -0.1210
     63  CA         9.2400   44.0700   55.3800 C.3   134  GLY134      0.1956
     64  C         10.1560   43.1150   54.6360 C.2   134  GLY134      0.2611
     65  O          9.6940   42.1710   53.9900 O.2   134  GLY134     -0.2717
     66  N         11.4560   43.3880   54.7000 N.am  135  PHE135     -0.1976
     67  CA        12.4570   42.5530   54.0480 C.3   135  PHE135      0.1639
     68  C         12.8340   41.3700   54.9380 C.2   135  PHE135      0.2290
     69  O         13.5590   40.4720   54.5120 O.2   135  PHE135     -0.2864
     70  CB        13.7050   43.3770   53.7220 C.3   135  PHE135      0.0560
     71  CG        14.5850   42.7590   52.6750 C.ar  135  PHE135     -0.0200
     72  CD1       14.1780   42.7710   51.3320 C.ar  135  PHE135     -0.0042
     73  CD2       15.7840   42.1910   52.9960 C.ar  135  PHE135     -0.0042
     74  CE1       14.9790   42.2470   50.3420 C.ar  135  PHE135     -0.0003
     75  CE2       16.6020   41.6640   52.0110 C.ar  135  PHE135     -0.0003
     76  CZ        16.1900   41.6960   50.6780 C.ar  135  PHE135     -0.0000
     77  N         14.9350   41.0040   43.2220 N.3   144  HIS144     -0.1241
     78  CA        15.4310   42.0850   44.0670 C.3   144  HIS144      0.1621
     79  C         16.9580   42.1420   44.0860 C.2   144  HIS144      0.2264
     80  O         17.5440   43.0830   44.6260 O.2   144  HIS144     -0.2867
     81  CB        14.8990   41.9350   45.4940 C.3   144  HIS144      0.0745
     82  CG        15.2210   43.1630   46.3570 C.ar  144  HIS144      0.0817
     83  ND1       14.5630   44.3140   46.1910 N.ar  144  HIS144     -0.2268
     84  CD2       16.1980   43.2290   47.3250 C.ar  144  HIS144      0.1154
     85  CE1       15.1350   45.1200   47.0700 C.ar  144  HIS144      0.1986
     86  NE2       16.0940   44.4770   47.7320 N.ar  144  HIS144     -0.2212
     87  N         17.9190   44.7810   41.4240 N.3   147  GLY147     -0.1210
     88  CA        17.6780   46.1560   41.8260 C.3   147  GLY147      0.1956
     89  C         18.7890   46.6850   42.7140 C.2   147  GLY147      0.2611
     90  O         18.9440   47.8990   42.8790 O.2   147  GLY147     -0.2717
     91  N         19.5250   45.7680   43.3360 N.am  148  VAL148     -0.1979
     92  CA        20.6350   46.1230   44.2100 C.3   148  VAL148      0.1595
     93  C         21.9370   46.1490   43.4110 C.2   148  VAL148      0.2287
     94  O         22.9270   46.7500   43.8410 O.2   148  VAL148     -0.2864
     95  CB        20.7790   45.1170   45.3680 C.3   148  VAL148      0.0276
     96  CG1       21.9440   45.4720   46.2850 C.3   148  VAL148      0.0022
     97  CG2       19.4920   45.1390   46.1970 C.3   148  VAL148      0.0022
     98  N         22.0230   49.6880   41.3670 N.3   151  VAL151     -0.1231
     99  CA        22.3710   50.8470   42.1810 C.3   151  VAL151      0.1692
    100  C         23.8730   50.8760   42.4570 C.2   151  VAL151      0.2591
    101  O         24.4130   51.8860   42.9150 O.2   151  VAL151     -0.2718
    102  CB        21.6150   50.8370   43.5230 C.3   151  VAL151      0.0266
    103  CG1       21.9790   52.0390   44.3870 C.3   151  VAL151      0.0020
    104  CG2       20.1120   50.8890   43.2370 C.3   151  VAL151      0.0020
    105  N         24.5280   49.7410   42.2250 N.am  152  LEU152     -0.1980
    106  CA        25.9660   49.6130   42.4270 C.3   152  LEU152      0.1596
    107  C         26.6800   49.5200   41.0800 C.2   152  LEU152      0.2287
    108  O         27.9120   49.4950   41.0190 O.2   152  LEU152     -0.2864
    109  CB        26.2760   48.3720   43.2680 C.3   152  LEU152      0.0297
    110  CG        25.8820   48.4350   44.7430 C.3   152  LEU152      0.0022
    111  CD1       26.1300   47.0820   45.3670 C.3   152  LEU152      0.0001
    112  CD2       26.6690   49.4780   45.4950 C.3   152  LEU152      0.0001
    113  N         16.8020   48.3090   36.6120 N.3   206  MET206     -0.1230
    114  CA        16.9740   47.7690   37.9580 C.3   206  MET206      0.1702
    115  C         15.7960   48.1670   38.8370 C.2   206  MET206      0.2593
    116  O         15.3500   47.3930   39.6820 O.2   206  MET206     -0.2718
    117  CB        18.2790   48.2790   38.5750 C.3   206  MET206      0.0401
    118  CG        18.2950   49.7450   38.8530 C.3   206  MET206      0.0596
    119  SD        18.1440   50.0440   40.6830 S.3   206  MET206     -0.1393
    120  CE        18.6220   51.8180   40.6540 C.3   206  MET206      0.0692
    121  N         15.3220   49.3960   38.6600 N.am  207  SER207     -0.1952
    122  CA        14.1900   49.8990   39.4270 C.3   207  SER207      0.1924
    123  C         12.9030   49.2140   38.9760 C.2   207  SER207      0.2314
    124  O         11.9480   49.1010   39.7450 O.2   207  SER207     -0.2863
    125  CB        14.0610   51.4090   39.2500 C.3   207  SER207      0.2116
    126  OG        15.1640   52.0900   39.7620 O.3   207  SER207     -0.2180
    127  N         13.2820   45.5680   40.5690 N.3   210  GLY210     -0.1210
    128  CA        13.0990   45.5540   42.0080 C.3   210  GLY210      0.1956
    129  C         11.6670   45.8710   42.3910 C.2   210  GLY210      0.2611
    130  O         11.2020   45.4850   43.4640 O.2   210  GLY210     -0.2717
    131  N         10.9870   46.6260   41.5310 N.am  211  VAL211     -0.1979
    132  CA         9.5960   46.9950   41.7540 C.3   211  VAL211      0.1595
    133  C          8.6970   45.8200   41.3860 C.2   211  VAL211      0.2287
    134  O          7.6200   45.6490   41.9580 O.2   211  VAL211     -0.2864
    135  CB         9.1910   48.2150   40.9050 C.3   211  VAL211      0.0276
    136  CG1        7.6890   48.3710   40.5250 C.3   211  VAL211      0.0022
    137  CG2        9.7510   49.5060   41.4960 C.3   211  VAL211      0.0022
    138  N          9.0160   43.2740   44.2290 N.3   214  LEU214     -0.1245
    139  CA         8.3140   43.6950   45.4360 C.3   214  LEU214      0.1561
    140  C          6.8040   43.6580   45.2110 C.2   214  LEU214      0.2260
    141  O          6.0270   43.5880   46.1660 O.2   214  LEU214     -0.2867
    142  CB         8.7430   45.1080   45.8340 C.3   214  LEU214      0.0270
    143  CG         8.1860   45.6870   47.1260 C.3   214  LEU214      0.0019
    144  CD1        8.8010   45.0040   48.3410 C.3   214  LEU214      0.0001
    145  CD2        8.4300   47.1930   47.1880 C.3   214  LEU214      0.0001
@<TRIPOS>BOND
     1   113   114    1
     2   114   117    1
     3   114   115    1
     4   117   118    1
     5   121   115   am
     6   121   122    1
     7   115   116    2
     8   118   119    1
     9   123   122    1
    10   123   124    2
    11   125   122    1
    12   125   126    1
    13   136   135    1
    14   127   128    1
    15   120   119    1
    16   135   137    1
    17   135   132    1
    18   108   107    2
    19     1     2    1
    20   107   106    1
    21    98    99    1
    22   133   132    1
    23   133   134    2
    24    87    88    1
    25   131   132    1
    26   131   129   am
    27     7     5    1
    28    88    89    1
    29   128   129    1
    30    99   100    1
    31    99   102    1
    32   105   106    1
    33   105   100   am
    34   129   130    2
    35   106   109    1
    36     2     5    1
    37     2     3    1
    38   100   101    2
    39     5     6    1
    40    89    90    2
    41    89    91   am
    42     8     9    1
    43    12     9    1
    44    12    13    1
    45    77    78    1
    46   104   102    1
    47   109   110    1
    48    91    92    1
    49     9    10    1
    50    93    94    2
    51    93    92    1
    52     3     4    2
    53   102   103    1
    54    78    79    1
    55    78    81    1
    56    79    80    2
    57    92    95    1
    58   138   139    1
    59   110   111    1
    60   110   112    1
    61    10    11    2
    62    10    14   am
    63   140   139    1
    64   140   141    2
    65    95    97    1
    66    95    96    1
    67   139   142    1
    68    81    82    1
    69    14    15    1
    70   142   143    1
    71    83    82   ar
    72    83    85   ar
    73    82    84   ar
    74    15    16    1
    75    15    18    1
    76    85    86   ar
    77   143   145    1
    78   143   144    1
    79    84    86   ar
    80    16    17    2
    81    20    18    1
    82    18    19    1
    83    74    76   ar
    84    74    72   ar
    85    76    75   ar
    86    48    50   ar
    87    48    46   ar
    88    50    49   ar
    89    72    71   ar
    90    46    45   ar
    91    49    47   ar
    92    75    73   ar
    93    30    28   ar
    94    30    31   ar
    95    28    26   ar
    96    31    29   ar
    97    25    26    1
    98    25    22    1
    99    26    27   ar
   100    71    73   ar
   101    71    70    1
   102    45    47   ar
   103    45    44    1
   104    29    27   ar
   105    21    22    1
   106    70    67    1
   107    44    41    1
   108    22    23    1
   109    65    64    2
   110    67    66    1
   111    67    68    1
   112    69    68    2
   113    41    42    1
   114    41    40    1
   115    23    24    2
   116    43    42    2
   117    64    66   am
   118    64    63    1
   119    42    51   am
   120    35    34    2
   121    63    62    1
   122    40    34   am
   123    34    33    1
   124    36    33    1
   125    36    37    1
   126    51    52    1
   127    33    32    1
   128    38    37    1
   129    37    39    1
   130    52    53    1
   131    52    55    1
   132    53    54    2
   133    55    56    1
   134    57    56   ar
   135    57    59   ar
   136    56    58   ar
   137    59    61   ar
   138    58    60   ar
   139    61    60   ar
