@<TRIPOS>MOLECULE
tmp/1izlB10.pdb
 86 86 0 0 0
SMALL
GASTEIGER

@<TRIPOS>ATOM
      1  N        -16.3220   29.7820   31.0940 N.3    68  ARG68      -0.1231
      2  CA       -17.0490   30.1690   29.8890 C.3    68  ARG68       0.1694
      3  C        -17.8530   29.0200   29.2830 C.2    68  ARG68       0.2592
      4  O        -19.0420   29.1730   28.9880 O.2    68  ARG68      -0.2718
      5  CB       -16.0790   30.7320   28.8460 C.3    68  ARG68       0.0321
      6  CG       -15.8700   32.2440   28.9640 C.3    68  ARG68       0.0489
      7  CD       -14.8960   32.6420   27.8580 C.3    68  ARG68       0.2205
      8  NE       -13.8910   31.5810   27.9460 N.pl3  68  ARG68      -0.0865
      9  CZ       -12.7620   31.4160   27.2660 C.cat  68  ARG68       0.5346
     10  NH1      -12.3850   32.2680   26.3210 N.pl3  68  ARG68       0.1354
     11  NH2      -11.9840   30.3550   27.5330 N.pl3  68  ARG68       0.1354
     12  N        -17.1840   27.8970   29.0360 N.am   69  LEU69      -0.1966
     13  CA       -17.8320   26.7200   28.4640 C.3    69  LEU69       0.1728
     14  C        -18.4570   25.8570   29.5610 C.2    69  LEU69       0.2616
     15  O        -18.7550   26.3450   30.6530 O.2    69  LEU69      -0.2715
     16  CB       -16.8210   25.9020   27.6520 C.3    69  LEU69       0.0311
     17  CG       -16.1520   26.6260   26.4910 C.3    69  LEU69       0.0022
     18  CD1      -15.0350   25.8000   25.8890 C.3    69  LEU69       0.0001
     19  CD2      -17.1480   27.0000   25.4090 C.3    69  LEU69       0.0001
     20  N        -18.6910   24.5840   29.2530 N.am   70  GLY70      -0.1955
     21  CA       -19.2790   23.6780   30.2240 C.3    70  GLY70       0.1869
     22  C        -18.4310   22.4390   30.4230 C.2    70  GLY70       0.2309
     23  O        -18.4180   21.5430   29.5740 O.2    70  GLY70      -0.2863
     24  N        -17.1010   17.3520   21.9100 N.3    85  TRP85      -0.1241
     25  CA       -17.4290   18.7490   21.6550 C.3    85  TRP85       0.1605
     26  C        -17.6440   19.4940   22.9730 C.2    85  TRP85       0.2264
     27  O        -18.4780   20.3990   23.0590 O.2    85  TRP85      -0.2867
     28  CB       -18.6830   18.8440   20.7840 C.3    85  TRP85       0.0550
     29  CG       -19.0950   20.2400   20.4020 C.ar   85  TRP85       0.0003
     30  CD1      -18.4010   21.4070   20.5770 C.ar   85  TRP85       0.0946
     31  CD2      -20.2980   20.6010   19.7050 C.ar   85  TRP85       0.0152
     32  NE1      -19.1060   22.4620   20.0700 N.ar   85  TRP85      -0.2442
     33  CE2      -20.2750   21.9980   19.5240 C.ar   85  TRP85       0.0810
     34  CE3      -21.4010   19.8720   19.2340 C.ar   85  TRP85       0.0012
     35  CZ2      -21.3100   22.6890   18.8940 C.ar   85  TRP85       0.0191
     36  CZ3      -22.4290   20.5630   18.6140 C.ar   85  TRP85       0.0001
     37  CH2      -22.3790   21.9560   18.4430 C.ar   85  TRP85       0.0015
     38  N        -20.2660   40.9020   18.1880 N.3   143  LEU143     -0.1245
     39  CA       -19.8380   39.7640   18.9920 C.3   143  LEU143      0.1561
     40  C        -20.1150   40.0220   20.4720 C.2   143  LEU143      0.2260
     41  O        -20.1750   39.0860   21.2720 O.2   143  LEU143     -0.2867
     42  CB       -18.3440   39.5010   18.7810 C.3   143  LEU143      0.0270
     43  CG       -17.9390   38.9370   17.4200 C.3   143  LEU143      0.0019
     44  CD1      -16.4310   38.8830   17.3490 C.3   143  LEU143      0.0001
     45  CD2      -18.4940   37.5550   17.1910 C.3   143  LEU143      0.0001
     46  N        -23.6970   39.1750   21.7460 N.3   146  GLY146     -0.1210
     47  CA       -23.9390   37.7530   21.5750 C.3   146  GLY146      0.1956
     48  C        -24.6560   37.1180   22.7530 C.2   146  GLY146      0.2611
     49  O        -25.0740   35.9610   22.6750 O.2   146  GLY146     -0.2717
     50  N        -24.7620   37.8560   23.8540 N.am  147  PHE147     -0.1976
     51  CA       -25.4370   37.3680   25.0530 C.3   147  PHE147      0.1639
     52  C        -26.9480   37.3100   24.8330 C.2   147  PHE147      0.2290
     53  O        -27.6660   36.6210   25.5600 O.2   147  PHE147     -0.2864
     54  CB       -25.1180   38.2700   26.2470 C.3   147  PHE147      0.0560
     55  CG       -23.8000   38.0000   26.8810 C.ar  147  PHE147     -0.0200
     56  CD1      -22.7490   37.4950   26.1260 C.ar  147  PHE147     -0.0042
     57  CD2      -23.5960   38.3320   28.2370 C.ar  147  PHE147     -0.0042
     58  CE1      -21.5230   37.2560   26.7030 C.ar  147  PHE147     -0.0003
     59  CE2      -22.3750   38.0920   28.8140 C.ar  147  PHE147     -0.0003
     60  CZ       -21.3270   37.5320   28.0390 C.ar  147  PHE147     -0.0000
     61  N        -28.3530   35.9200   22.5450 N.3   149  ALA149     -0.1231
     62  CA       -28.6490   34.6780   21.8430 C.3   149  ALA149      0.1694
     63  C        -28.1470   33.4350   22.5750 C.2   149  ALA149      0.2592
     64  O        -26.9570   33.1170   22.5380 O.2   149  ALA149     -0.2718
     65  CB       -28.0750   34.7260   20.4310 C.3   149  ALA149      0.0304
     66  N        -29.0810   32.7160   23.1980 N.am  150  PHE150     -0.1962
     67  CA       -28.7960   31.4850   23.9390 C.3   150  PHE150      0.1771
     68  C        -28.0010   31.6640   25.2310 C.2   150  PHE150      0.2619
     69  O        -28.2520   30.9690   26.2180 O.2   150  PHE150     -0.2715
     70  CB       -28.1010   30.4590   23.0370 C.3   150  PHE150      0.0574
     71  CG       -28.9280   29.5820   22.1440 C.ar  150  PHE150     -0.0200
     72  CD1      -30.2310   29.8110   22.0590 C.ar  150  PHE150     -0.0042
     73  CD2      -28.3640   28.6190   21.3500 C.ar  150  PHE150     -0.0042
     74  CE1      -31.0670   29.0220   21.2200 C.ar  150  PHE150     -0.0003
     75  CE2      -29.1880   27.8650   20.4760 C.ar  150  PHE150     -0.0003
     76  CZ       -30.5090   28.0530   20.4530 C.ar  150  PHE150     -0.0000
     77  N        -27.0320   32.5730   25.2140 N.am  151  HIS151     -0.1973
     78  CA       -26.1940   32.8380   26.3800 C.3   151  HIS151      0.1656
     79  C        -26.8880   33.7490   27.3920 C.2   151  HIS151      0.2291
     80  O        -26.4620   34.8840   27.6150 O.2   151  HIS151     -0.2864
     81  CB       -24.8640   33.4560   25.9390 C.3   151  HIS151      0.0771
     82  CG       -23.8980   32.4450   25.3990 C.ar  151  HIS151      0.0820
     83  ND1      -22.7180   32.8150   24.8200 N.ar  151  HIS151     -0.2267
     84  CD2      -23.9830   31.0830   25.3800 C.ar  151  HIS151      0.1154
     85  CE1      -22.0840   31.7290   24.4570 C.ar  151  HIS151      0.1986
     86  NE2      -22.8250   30.6840   24.7640 N.ar  151  HIS151     -0.2212
@<TRIPOS>BOND
     1    45    43    1
     2    44    43    1
     3    43    42    1
     4    38    39    1
     5    37    36   ar
     6    37    35   ar
     7    36    34   ar
     8    42    39    1
     9    35    33   ar
    10    39    40    1
    11    34    31   ar
    12    33    31   ar
    13    33    32   ar
    14    31    29   ar
    15    32    30   ar
    16    29    30   ar
    17    29    28    1
    18    65    62    1
    19    76    75   ar
    20    76    74   ar
    21    40    41    2
    22    75    73   ar
    23    28    25    1
    24    74    72   ar
    25    73    71   ar
    26    47    46    1
    27    47    48    1
    28    25    24    1
    29    25    26    1
    30    62    61    1
    31    62    63    1
    32    72    71   ar
    33    71    70    1
    34    64    63    2
    35    63    66   am
    36    49    48    2
    37    48    50   am
    38    26    27    2
    39    70    67    1
    40    66    67    1
    41    50    51    1
    42    67    68    1
    43    85    86   ar
    44    85    83   ar
    45    86    84   ar
    46    83    82   ar
    47    52    51    1
    48    52    53    2
    49    51    54    1
    50    77    68   am
    51    77    78    1
    52    68    69    2
    53    84    82   ar
    54    82    81    1
    55    19    17    1
    56    18    17    1
    57    81    78    1
    58    56    58   ar
    59    56    55   ar
    60    54    55    1
    61    10     9    1
    62    78    79    1
    63    17    16    1
    64    58    60   ar
    65    55    57   ar
    66     9    11    1
    67     9     8    2
    68    79    80    2
    69    16    13    1
    70     7     8    1
    71     7     6    1
    72    60    59   ar
    73    57    59   ar
    74    13    12    1
    75    13    14    1
    76     5     6    1
    77     5     2    1
    78     4     3    2
    79    12     3   am
    80    20    14   am
    81    20    21    1
    82     3     2    1
    83    14    15    2
    84    23    22    2
    85     2     1    1
    86    21    22    1
