@<TRIPOS>MOLECULE
tmp/1izlB02.pdb
 126 123 0 0 0
SMALL
GASTEIGER

@<TRIPOS>ATOM
      1  N         19.5510   45.8590   13.4920 N.3     6  TYR6       -0.1241
      2  CA        19.9570   46.1420   14.8660 C.3     6  TYR6        0.1605
      3  C         19.7160   44.9280   15.7690 C.2     6  TYR6        0.2264
      4  O         20.0570   43.7990   15.4090 O.2     6  TYR6       -0.2867
      5  CB        19.2010   47.3650   15.4000 C.3     6  TYR6        0.0534
      6  CG        19.7820   48.2050   16.4690 C.ar    6  TYR6       -0.0201
      7  CD1       21.1570   48.2180   16.7740 C.ar    6  TYR6       -0.0009
      8  CD2       18.9090   49.0450   17.1810 C.ar    6  TYR6       -0.0009
      9  CE1       21.6340   49.0350   17.7770 C.ar    6  TYR6        0.0417
     10  CE2       19.4120   49.8680   18.1940 C.ar    6  TYR6        0.0417
     11  CZ        20.7740   49.8610   18.4760 C.ar    6  TYR6        0.1957
     12  OH        21.1960   50.6800   19.4830 O.3     6  TYR6       -0.2866
     13  N         16.5620   44.4140   17.1640 N.3     8  VAL8       -0.1231
     14  CA        15.1090   44.3200   17.2460 C.3     8  VAL8        0.1692
     15  C         14.4800   44.3310   15.8580 C.2     8  VAL8        0.2592
     16  O         15.0020   44.9620   14.9370 O.2     8  VAL8       -0.2718
     17  CB        14.5180   45.4850   18.0650 C.3     8  VAL8        0.0266
     18  CG1       14.7100   46.8490   17.4550 C.3     8  VAL8        0.0020
     19  CG2       13.0680   45.2250   18.4380 C.3     8  VAL8        0.0020
     20  N         13.3600   43.6260   15.7150 N.am    9  HIS9       -0.1962
     21  CA        12.6470   43.5460   14.4420 C.3     9  HIS9        0.1787
     22  C         12.1220   44.9180   14.0270 C.2     9  HIS9        0.2620
     23  O         11.0350   45.3320   14.4360 O.2     9  HIS9       -0.2715
     24  CB        11.4870   42.5490   14.5420 C.3     9  HIS9        0.0785
     25  CG        11.9150   41.1580   14.9000 C.ar    9  HIS9        0.0821
     26  ND1       12.4560   40.2850   13.9800 N.ar    9  HIS9       -0.2267
     27  CD2       11.8840   40.4910   16.0770 C.ar    9  HIS9        0.1154
     28  CE1       12.7390   39.1410   14.5760 C.ar    9  HIS9        0.1986
     29  NE2       12.4020   39.2380   15.8480 N.ar    9  HIS9       -0.2212
     30  N         12.9190   45.6270   13.2340 N.am   10  THR10      -0.1951
     31  CA        12.5560   46.9560   12.7560 C.3    10  THR10       0.1897
     32  C         11.9730   46.8950   11.3440 C.2    10  THR10       0.2313
     33  O         12.1520   47.8180   10.5480 O.2    10  THR10      -0.2863
     34  CB        13.7770   47.8990   12.7630 C.3    10  THR10       0.1794
     35  OG1       14.7700   47.3500   11.9100 O.3    10  THR10      -0.2208
     36  CG2       14.3280   48.1060   14.1610 C.3    10  THR10       0.0378
     37  N          8.4440   45.6990    8.7890 N.3    12  LEU12      -0.1245
     38  CA         7.0770   46.1860    8.6080 C.3    12  LEU12       0.1561
     39  C          7.0360   47.6420    8.1400 C.2    12  LEU12       0.2260
     40  O          7.5210   47.9580    7.0520 O.2    12  LEU12      -0.2867
     41  CB         6.2630   46.0030    9.8960 C.3    12  LEU12       0.0270
     42  CG         6.1340   44.5750   10.4100 C.3    12  LEU12       0.0019
     43  CD1        5.4920   44.5320   11.7800 C.3    12  LEU12       0.0001
     44  CD2        5.3490   43.6980    9.4510 C.3    12  LEU12       0.0001
     45  N         -0.9350   52.6170   17.3550 N.3   225  LEU225     -0.1245
     46  CA        -0.4520   51.4580   18.0990 C.3   225  LEU225      0.1561
     47  C         -0.3380   51.7600   19.5900 C.2   225  LEU225      0.2260
     48  O         -0.5520   50.8800   20.4270 O.2   225  LEU225     -0.2867
     49  CB         0.9060   51.0100   17.5540 C.3   225  LEU225      0.0270
     50  CG         1.3690   49.6280   18.0010 C.3   225  LEU225      0.0019
     51  CD1        0.6430   48.5690   17.2480 C.3   225  LEU225      0.0001
     52  CD2        2.8670   49.4050   17.7780 C.3   225  LEU225      0.0001
     53  N         -1.8070   50.1770   23.7170 N.3   229  ILE229     -0.1245
     54  CA        -0.9740   49.9240   24.8870 C.3   229  ILE229      0.1561
     55  C         -1.6130   50.5170   26.1390 C.2   229  ILE229      0.2260
     56  O         -1.5020   49.9580   27.2290 O.2   229  ILE229     -0.2867
     57  CB         0.4330   50.5270   24.7130 C.3   229  ILE229      0.0252
     58  CG1        1.0200   49.9430   23.4270 C.3   229  ILE229      0.0019
     59  CG2        1.3500   50.1970   25.9480 C.3   229  ILE229      0.0019
     60  CD1        2.5010   50.0600   23.3380 C.3   229  ILE229      0.0001
     61  N          5.2380   46.5140   30.8310 N.3   304  LEU304     -0.1245
     62  CA         5.0910   46.6700   29.3880 C.3   304  LEU304      0.1561
     63  C          4.0700   47.7490   29.0280 C.2   304  LEU304      0.2260
     64  O          3.7970   47.9860   27.8480 O.2   304  LEU304     -0.2867
     65  CB         4.6880   45.3360   28.7510 C.3   304  LEU304      0.0270
     66  CG         5.7600   44.2470   28.7180 C.3   304  LEU304      0.0019
     67  CD1        5.1390   42.9740   28.1920 C.3   304  LEU304      0.0001
     68  CD2        6.9250   44.6270   27.8420 C.3   304  LEU304      0.0001
     69  N          6.5770   51.1760   30.5500 N.3   307  PHE307     -0.1227
     70  CA         7.8120   51.2860   29.7820 C.3   307  PHE307      0.1736
     71  C          7.5530   51.0180   28.3020 C.2   307  PHE307      0.2596
     72  O          8.3810   51.3430   27.4490 O.2   307  PHE307     -0.2718
     73  CB         8.8550   50.2980   30.3140 C.3   307  PHE307      0.0547
     74  CG         9.4870   50.6500   31.6250 C.ar  307  PHE307     -0.0202
     75  CD1        9.7440   51.9740   31.9990 C.ar  307  PHE307     -0.0042
     76  CD2        9.8570   49.6100   32.4980 C.ar  307  PHE307     -0.0042
     77  CE1       10.3820   52.2560   33.1920 C.ar  307  PHE307     -0.0003
     78  CE2       10.4820   49.8940   33.7060 C.ar  307  PHE307     -0.0003
     79  CZ        10.7510   51.2290   34.0440 C.ar  307  PHE307     -0.0000
     80  N          6.4160   50.3890   28.0120 N.am  308  GLY308     -0.1957
     81  CA         6.0590   50.0820   26.6390 C.3   308  GLY308      0.1869
     82  C          5.3160   51.2170   25.9600 C.2   308  GLY308      0.2309
     83  O          5.4430   51.4130   24.7490 O.2   308  GLY308     -0.2863
     84  N          5.6230   54.3880   26.9980 N.3   310  ILE310     -0.1231
     85  CA         6.5130   55.5430   27.0590 C.3   310  ILE310      0.1692
     86  C          7.5090   55.5190   25.9020 C.2   310  ILE310      0.2592
     87  O          7.9180   56.5680   25.4000 O.2   310  ILE310     -0.2718
     88  CB         7.2940   55.5780   28.3860 C.3   310  ILE310      0.0266
     89  CG1        7.8640   56.9730   28.6550 C.3   310  ILE310      0.0019
     90  CG2        8.2810   54.4130   28.4880 C.3   310  ILE310      0.0020
     91  CD1        8.2670   57.1850   30.0740 C.3   310  ILE310      0.0001
     92  N          7.9300   54.3160   25.5220 N.am  311  TRP311     -0.1962
     93  CA         8.8740   54.1340   24.4250 C.3   311  TRP311      0.1771
     94  C          8.1730   54.3110   23.0800 C.2   311  TRP311      0.2619
     95  O          8.7980   54.7000   22.0910 O.2   311  TRP311     -0.2715
     96  CB         9.5120   52.7450   24.5000 C.3   311  TRP311      0.0590
     97  CG        10.7050   52.5530   23.6370 C.ar  311  TRP311      0.0006
     98  CD1       11.4030   53.5000   22.9130 C.ar  311  TRP311      0.0946
     99  CD2       11.3890   51.2870   23.4050 C.ar  311  TRP311      0.0152
    100  NE1       12.5090   52.8850   22.3070 N.ar  311  TRP311     -0.2442
    101  CE2       12.4870   51.5600   22.5550 C.ar  311  TRP311      0.0810
    102  CE3       11.1730   49.9950   23.8960 C.ar  311  TRP311      0.0012
    103  CZ2       13.3870   50.5430   22.1730 C.ar  311  TRP311      0.0191
    104  CZ3       12.0590   49.0070   23.5230 C.ar  311  TRP311      0.0001
    105  CH2       13.1590   49.2610   22.7090 C.ar  311  TRP311      0.0015
    106  N          6.8860   53.9800   23.0460 N.am  312  HIS312     -0.1973
    107  CA         6.0820   54.1000   21.8340 C.3   312  HIS312      0.1656
    108  C          5.4560   55.4880   21.7260 C.2   312  HIS312      0.2291
    109  O          5.0650   55.9190   20.6400 O.2   312  HIS312     -0.2864
    110  CB         4.9840   53.0350   21.8180 C.3   312  HIS312      0.0771
    111  CG         5.4970   51.6470   21.5720 C.ar  312  HIS312      0.0820
    112  ND1        6.3930   50.9850   22.4070 N.ar  312  HIS312     -0.2267
    113  CD2        5.2660   50.7890   20.5400 C.ar  312  HIS312      0.1154
    114  CE1        6.6750   49.7800   21.8500 C.ar  312  HIS312      0.1986
    115  NE2        5.9730   49.6580   20.7420 N.ar  312  HIS312     -0.2212
    116  N          8.1120   57.9820   19.7830 N.3   315  ARG315     -0.1245
    117  CA         8.2010   57.7980   18.3360 C.3   315  ARG315      0.1563
    118  C          6.8290   57.8810   17.6690 C.2   315  ARG315      0.2260
    119  O          6.6890   57.5920   16.4790 O.2   315  ARG315     -0.2867
    120  CB         8.8520   56.4510   18.0170 C.3   315  ARG315      0.0307
    121  CG        10.1950   56.2390   18.7140 C.3   315  ARG315      0.0489
    122  CD        10.7380   54.8610   18.4030 C.3   315  ARG315      0.2205
    123  NE         9.7890   53.8520   18.8520 N.pl3 315  ARG315     -0.0865
    124  CZ        10.1060   52.5940   19.1010 C.cat 315  ARG315      0.5346
    125  NH1       11.3570   52.1810   18.9470 N.pl3 315  ARG315      0.1354
    126  NH2        9.1700   51.7600   19.5230 N.pl3 315  ARG315      0.1354
@<TRIPOS>BOND
     1    40    39    2
     2    39    38    1
     3    38    37    1
     4    38    41    1
     5    44    42    1
     6    41    42    1
     7    42    43    1
     8    33    32    2
     9    32    31    1
    10    35    34    1
    11    31    34    1
    12    31    30    1
    13    34    36    1
    14    30    22   am
    15     1     2    1
    16    26    28   ar
    17    26    25   ar
    18    22    23    2
    19    22    21    1
    20    21    24    1
    21    21    20    1
    22    24    25    1
    23    28    29   ar
    24     2     5    1
    25     2     3    1
    26    25    27   ar
    27    16    15    2
    28     5     6    1
    29     4     3    2
    30    20    15   am
    31    29    27   ar
    32    15    14    1
    33     6     7   ar
    34     6     8   ar
    35   119   118    2
    36     7     9   ar
    37    13    14    1
    38     8    10   ar
    39    14    17    1
    40    51    50    1
    41    45    46    1
    42    18    17    1
    43    49    50    1
    44    49    46    1
    45   118   117    1
    46     9    11   ar
    47    52    50    1
    48   120   117    1
    49   120   121    1
    50    17    19    1
    51    46    47    1
    52    10    11   ar
    53   117   116    1
    54   122   121    1
    55   122   123    1
    56    11    12    1
    57   123   124    2
    58   125   124    1
    59   124   126    1
    60    47    48    2
    61   113   115   ar
    62   113   111   ar
    63   109   108    2
    64   115   114   ar
    65   111   110    1
    66   111   112   ar
    67   108   107    1
    68   110   107    1
    69   107   106    1
    70   114   112   ar
    71    95    94    2
    72   103   101   ar
    73   103   105   ar
    74   100   101   ar
    75   100    98   ar
    76   101    99   ar
    77   105   104   ar
    78    98    97   ar
    79   106    94   am
    80    94    93    1
    81    60    58    1
    82    99    97   ar
    83    99   102   ar
    84    58    57    1
    85   104   102   ar
    86    97    96    1
    87    53    54    1
    88    93    96    1
    89    93    92    1
    90    57    54    1
    91    57    59    1
    92    83    82    2
    93    54    55    1
    94    87    86    2
    95    92    86   am
    96    86    85    1
    97    82    81    1
    98    55    56    2
    99    81    80    1
   100    84    85    1
   101    85    88    1
   102    72    71    2
   103    68    66    1
   104    64    63    2
   105    80    71   am
   106    67    66    1
   107    71    70    1
   108    88    90    1
   109    88    89    1
   110    89    91    1
   111    66    65    1
   112    65    62    1
   113    63    62    1
   114    62    61    1
   115    70    73    1
   116    70    69    1
   117    73    74    1
   118    74    75   ar
   119    74    76   ar
   120    75    77   ar
   121    76    78   ar
   122    77    79   ar
   123    78    79   ar
