@<TRIPOS>MOLECULE
tmp/1izlB13.pdb
 101 96 0 0 0
SMALL
GASTEIGER

@<TRIPOS>ATOM
      1  N         -1.7280   35.2110   16.4810 N.3    27  THR27      -0.1218
      2  CA        -3.0080   35.1270   17.1760 C.3    27  THR27       0.1862
      3  C         -3.3880   33.6630   17.3560 C.2    27  THR27       0.2287
      4  O         -4.0630   33.2990   18.3220 O.2    27  THR27      -0.2866
      5  CB        -4.1200   35.8210   16.3750 C.3    27  THR27       0.1770
      6  OG1       -3.7980   37.2070   16.5070 O.3    27  THR27      -0.2211
      7  CG2       -5.5050   35.5980   17.0060 C.3    27  THR27       0.0375
      8  N         -0.7900   32.0660   19.9900 N.3    30  VAL30      -0.1231
      9  CA        -1.0490   32.4010   21.3850 C.3    30  VAL30       0.1692
     10  C         -2.2410   31.5960   21.8880 C.2    30  VAL30       0.2591
     11  O         -2.4830   31.5070   23.0930 O.2    30  VAL30      -0.2718
     12  CB        -1.3570   33.9000   21.5480 C.3    30  VAL30       0.0266
     13  CG1       -1.9340   34.1840   22.9470 C.3    30  VAL30       0.0020
     14  CG2       -0.1010   34.7270   21.3030 C.3    30  VAL30       0.0020
     15  N         -3.0060   31.0520   20.9440 N.am   31  ALA31      -0.1980
     16  CA        -4.1780   30.2460   21.2450 C.3    31  ALA31       0.1597
     17  C         -3.9250   28.7870   20.8690 C.2    31  ALA31       0.2287
     18  O         -4.6670   27.8930   21.2790 O.2    31  ALA31      -0.2864
     19  CB        -5.3860   30.7810   20.4910 C.3    31  ALA31       0.0319
     20  N         -1.1250   27.6160   23.7480 N.3    34  ALA34      -0.1231
     21  CA        -1.7800   27.6480   25.0490 C.3    34  ALA34       0.1694
     22  C         -3.0060   26.7380   25.0430 C.2    34  ALA34       0.2592
     23  O         -3.4690   26.2980   26.0970 O.2    34  ALA34      -0.2718
     24  CB        -2.1840   29.0740   25.3960 C.3    34  ALA34       0.0304
     25  N         -3.5420   26.4920   23.8510 N.am   35  GLY35      -0.1957
     26  CA        -4.7060   25.6350   23.7150 C.3    35  GLY35       0.1869
     27  C         -4.3310   24.1670   23.6570 C.2    35  GLY35       0.2309
     28  O         -5.0790   23.3070   24.1260 O.2    35  GLY35      -0.2863
     29  N         -4.9940   26.8000   32.7540 N.3    61  PHE61      -0.1241
     30  CA        -5.5600   26.8610   31.4110 C.3    61  PHE61       0.1605
     31  C         -6.9960   26.3370   31.3760 C.2    61  PHE61       0.2264
     32  O         -7.8490   26.8900   30.6780 O.2    61  PHE61      -0.2867
     33  CB        -4.6930   26.0610   30.4360 C.3    61  PHE61       0.0534
     34  CG        -3.4620   26.7970   29.9850 C.ar   61  PHE61      -0.0203
     35  CD1       -3.2420   28.1280   30.2700 C.ar   61  PHE61      -0.0042
     36  CD2       -2.5380   26.1100   29.2070 C.ar   61  PHE61      -0.0042
     37  CE1       -2.1040   28.8210   29.8310 C.ar   61  PHE61      -0.0003
     38  CE2       -1.3910   26.7720   28.7530 C.ar   61  PHE61      -0.0003
     39  CZ        -1.1510   28.1420   29.0630 C.ar   61  PHE61      -0.0000
     40  N        -10.1470   28.6470   32.4700 N.3    64  PRO64      -0.2102
     41  CA       -10.7870   29.5430   31.5010 C.3    64  PRO64       0.1504
     42  C        -11.8650   28.8440   30.6770 C.2    64  PRO64       0.2575
     43  O        -12.6640   29.4980   30.0020 O.2    64  PRO64      -0.2718
     44  CB        -9.6590   30.0100   30.6040 C.3    64  PRO64       0.0282
     45  CG        -8.4020   30.0330   31.4880 C.3    64  PRO64       0.0208
     46  CD        -8.6020   28.7880   32.3690 C.3    64  PRO64       0.0893
     47  N        -11.8460   27.5160   30.6960 N.am   65  PHE65      -0.1977
     48  CA       -12.8150   26.7170   29.9560 C.3    65  PHE65       0.1639
     49  C        -13.9930   26.2960   30.8380 C.2    65  PHE65       0.2290
     50  O        -15.0470   25.9020   30.3350 O.2    65  PHE65      -0.2864
     51  CB       -12.1310   25.4880   29.3470 C.3    65  PHE65       0.0560
     52  CG       -11.0320   25.8260   28.3700 C.ar   65  PHE65      -0.0200
     53  CD1       -9.7880   25.2080   28.4600 C.ar   65  PHE65      -0.0042
     54  CD2      -11.2430   26.7590   27.3570 C.ar   65  PHE65      -0.0042
     55  CE1       -8.7670   25.5230   27.5620 C.ar   65  PHE65      -0.0003
     56  CE2      -10.2290   27.0810   26.4570 C.ar   65  PHE65      -0.0003
     57  CZ        -8.9890   26.4580   26.5560 C.ar   65  PHE65      -0.0000
     58  N        -16.3220   29.7820   31.0940 N.3    68  ARG68      -0.1231
     59  CA       -17.0490   30.1690   29.8890 C.3    68  ARG68       0.1694
     60  C        -17.8530   29.0200   29.2830 C.2    68  ARG68       0.2591
     61  O        -19.0420   29.1730   28.9880 O.2    68  ARG68      -0.2718
     62  CB       -16.0790   30.7320   28.8460 C.3    68  ARG68       0.0321
     63  CG       -15.8700   32.2440   28.9640 C.3    68  ARG68       0.0489
     64  CD       -14.8960   32.6420   27.8580 C.3    68  ARG68       0.2205
     65  NE       -13.8910   31.5810   27.9460 N.pl3  68  ARG68      -0.0865
     66  CZ       -12.7620   31.4160   27.2660 C.cat  68  ARG68       0.5346
     67  NH1      -12.3850   32.2680   26.3210 N.pl3  68  ARG68       0.1354
     68  NH2      -11.9840   30.3550   27.5330 N.pl3  68  ARG68       0.1354
     69  N        -17.1840   27.8970   29.0360 N.am   69  LEU69      -0.1980
     70  CA       -17.8320   26.7200   28.4640 C.3    69  LEU69       0.1596
     71  C        -18.4570   25.8570   29.5610 C.2    69  LEU69       0.2287
     72  O        -18.7550   26.3450   30.6530 O.2    69  LEU69      -0.2864
     73  CB       -16.8210   25.9020   27.6520 C.3    69  LEU69       0.0297
     74  CG       -16.1520   26.6260   26.4910 C.3    69  LEU69       0.0022
     75  CD1      -15.0350   25.8000   25.8890 C.3    69  LEU69       0.0001
     76  CD2      -17.1480   27.0000   25.4090 C.3    69  LEU69       0.0001
     77  N        -11.9220   21.5910   22.7940 N.3    90  VAL90      -0.1245
     78  CA       -11.0760   22.7760   22.9030 C.3    90  VAL90       0.1561
     79  C         -9.7950   22.6210   22.0860 C.2    90  VAL90       0.2260
     80  O         -9.3550   23.5640   21.4250 O.2    90  VAL90      -0.2867
     81  CB       -10.6990   23.0650   24.3690 C.3    90  VAL90       0.0252
     82  CG1       -9.8070   24.2950   24.4930 C.3    90  VAL90       0.0019
     83  CG2      -11.9830   23.3220   25.1620 C.3    90  VAL90       0.0019
     84  N         -8.5120   24.3310   18.3930 N.3    94  HIS94      -0.1241
     85  CA        -7.2230   25.0140   18.4570 C.3    94  HIS94       0.1621
     86  C         -6.2970   24.5110   17.3530 C.2    94  HIS94       0.2264
     87  O         -5.4940   25.2690   16.8070 O.2    94  HIS94      -0.2867
     88  CB        -6.5690   24.7890   19.8230 C.3    94  HIS94       0.0745
     89  CG        -7.0410   25.7630   20.8650 C.ar   94  HIS94       0.0817
     90  ND1       -7.0060   27.1410   20.8250 N.ar   94  HIS94      -0.2268
     91  CD2       -7.5640   25.4560   22.0900 C.ar   94  HIS94       0.1154
     92  CE1       -7.4920   27.6520   21.9380 C.ar   94  HIS94       0.1986
     93  NE2       -7.8190   26.6480   22.7310 N.ar   94  HIS94      -0.2212
     94  N         -7.3590   26.0040   14.0990 N.3    97  LEU97      -0.1245
     95  CA        -7.1120   27.4390   14.0200 C.3    97  LEU97       0.1561
     96  C         -5.6300   27.7170   13.7970 C.2    97  LEU97       0.2260
     97  O         -5.2650   28.5980   13.0160 O.2    97  LEU97      -0.2867
     98  CB        -7.5850   28.1300   15.3000 C.3    97  LEU97       0.0270
     99  CG        -7.4960   29.6470   15.3680 C.3    97  LEU97       0.0019
    100  CD1       -8.5350   30.2980   14.4630 C.3    97  LEU97       0.0001
    101  CD2       -7.6720   30.1310   16.8050 C.3    97  LEU97       0.0001
@<TRIPOS>BOND
     1    97    96    2
     2    96    95    1
     3    95    94    1
     4    95    98    1
     5   100    99    1
     6    98    99    1
     7    99   101    1
     8     5     6    1
     9     5     7    1
    10     5     2    1
    11     1     2    1
    12    87    86    2
    13     2     3    1
    14    86    85    1
    15     3     4    2
    16    84    85    1
    17    85    88    1
    18    88    89    1
    19     8     9    1
    20    19    16    1
    21    90    89   ar
    22    90    92   ar
    23    89    91   ar
    24    17    16    1
    25    17    18    2
    26    15    16    1
    27    15    10   am
    28    14    12    1
    29     9    12    1
    30     9    10    1
    31    80    79    2
    32    12    13    1
    33    10    11    2
    34    92    93   ar
    35    79    78    1
    36    91    93   ar
    37    77    78    1
    38    78    81    1
    39    27    26    1
    40    27    28    2
    41    26    25    1
    42    20    21    1
    43    25    22   am
    44    81    82    1
    45    81    83    1
    46    22    21    1
    47    22    23    2
    48    21    24    1
    49    76    74    1
    50    75    74    1
    51    67    66    1
    52    56    57   ar
    53    56    54   ar
    54    74    73    1
    55    57    55   ar
    56    66    68    1
    57    66    65    2
    58    54    52   ar
    59    55    53   ar
    60    73    70    1
    61    64    65    1
    62    64    63    1
    63    52    53   ar
    64    52    51    1
    65    70    69    1
    66    70    71    1
    67    38    39   ar
    68    38    36   ar
    69    62    63    1
    70    62    59    1
    71    61    60    2
    72    69    60   am
    73    39    37   ar
    74    36    34   ar
    75    60    59    1
    76    51    48    1
    77    71    72    2
    78    37    35   ar
    79    59    58    1
    80    48    47    1
    81    48    49    1
    82    34    35   ar
    83    34    33    1
    84    43    42    2
    85    50    49    2
    86    33    30    1
    87    44    45    1
    88    44    41    1
    89    42    47   am
    90    42    41    1
    91    32    31    2
    92    31    30    1
    93    30    29    1
    94    45    46    1
    95    41    40    1
    96    46    40    1
