@<TRIPOS>MOLECULE
tmp/1izlC05.pdb
 90 87 0 0 0
SMALL
GASTEIGER

@<TRIPOS>ATOM
      1  N         47.3380   78.8860   62.9460 N.3     9  HIS9       -0.1241
      2  CA        46.6670   77.5970   63.0360 C.3     9  HIS9        0.1621
      3  C         46.9910   76.9210   64.3640 C.2     9  HIS9        0.2264
      4  O         46.1740   76.1730   64.9040 O.2     9  HIS9       -0.2867
      5  CB        47.0940   76.6940   61.8770 C.3     9  HIS9        0.0745
      6  CG        46.4590   75.3400   61.9010 C.ar    9  HIS9        0.0817
      7  ND1       47.1320   74.2090   62.3140 N.ar    9  HIS9       -0.2268
      8  CD2       45.2100   74.9340   61.5720 C.ar    9  HIS9        0.1154
      9  CE1       46.3240   73.1670   62.2400 C.ar    9  HIS9        0.1986
     10  NE2       45.1520   73.5800   61.7920 N.ar    9  HIS9       -0.2212
     11  N         45.1270   78.8730   67.1070 N.3    12  LEU12      -0.1231
     12  CA        43.6790   78.7200   67.0340 C.3    12  LEU12       0.1693
     13  C         43.2490   77.2900   67.3560 C.2    12  LEU12       0.2591
     14  O         42.0600   77.0190   67.5370 O.2    12  LEU12      -0.2718
     15  CB        43.1720   79.1120   65.6440 C.3    12  LEU12       0.0284
     16  CG        41.6700   79.1060   65.4030 C.3    12  LEU12       0.0019
     17  CD1       40.9950   80.2620   66.1320 C.3    12  LEU12       0.0001
     18  CD2       41.3660   79.1770   63.9090 C.3    12  LEU12       0.0001
     19  N         44.2130   76.3740   67.3730 N.am   13  ILE13      -0.1980
     20  CA        43.9450   74.9720   67.6720 C.3    13  ILE13       0.1595
     21  C         44.2900   74.6420   69.1210 C.2    13  ILE13       0.2287
     22  O         43.7910   73.6610   69.6770 O.2    13  ILE13      -0.2864
     23  CB        44.7450   74.0350   66.7460 C.3    13  ILE13       0.0276
     24  CG1       44.1480   72.6260   66.7370 C.3    13  ILE13       0.0022
     25  CG2       46.2490   74.1300   67.0130 C.3    13  ILE13       0.0022
     26  CD1       44.6020   71.7970   65.5840 C.3    13  ILE13       0.0001
     27  N         41.5940   76.5300   71.2990 N.3    16  TRP16      -0.1227
     28  CA        40.2810   75.9300   71.1010 C.3    16  TRP16       0.1737
     29  C         40.1950   74.5890   71.8240 C.2    16  TRP16       0.2595
     30  O         39.1050   74.1290   72.1710 O.2    16  TRP16      -0.2718
     31  CB        40.0040   75.7350   69.6090 C.3    16  TRP16       0.0564
     32  CG        38.5790   75.4060   69.2570 C.ar   16  TRP16       0.0003
     33  CD1       37.4440   76.0150   69.6910 C.ar   16  TRP16       0.0946
     34  CD2       38.1570   74.3910   68.3430 C.ar   16  TRP16       0.0152
     35  NE1       36.3360   75.4450   69.1120 N.ar   16  TRP16      -0.2442
     36  CE2       36.7550   74.4440   68.2690 C.ar   16  TRP16       0.0810
     37  CE3       38.8450   73.4520   67.5700 C.ar   16  TRP16       0.0012
     38  CZ2       36.0140   73.5690   67.4670 C.ar   16  TRP16       0.0191
     39  CZ3       38.1240   72.6010   66.7550 C.ar   16  TRP16       0.0001
     40  CH2       36.7210   72.6830   66.7150 C.ar   16  TRP16       0.0015
     41  N         41.3460   73.9450   71.9980 N.am   17  ALA17      -0.1980
     42  CA        41.4230   72.6600   72.6820 C.3    17  ALA17       0.1597
     43  C         41.6660   72.8680   74.1730 C.2    17  ALA17       0.2287
     44  O         41.3220   72.0120   74.9930 O.2    17  ALA17      -0.2864
     45  CB        42.5320   71.8100   72.0800 C.3    17  ALA17       0.0319
     46  N         51.8430   64.2800   56.4110 N.3   200  LEU200     -0.1245
     47  CA        50.4700   64.0050   56.8230 C.3   200  LEU200      0.1561
     48  C         50.1860   62.5070   56.7860 C.2   200  LEU200      0.2260
     49  O         49.3780   62.0030   57.5670 O.2   200  LEU200     -0.2867
     50  CB        49.4850   64.7420   55.9160 C.3   200  LEU200      0.0270
     51  CG        49.1910   66.1930   56.3020 C.3   200  LEU200      0.0019
     52  CD1       48.2880   66.8130   55.2510 C.3   200  LEU200      0.0001
     53  CD2       48.4350   66.2240   57.6290 C.3   200  LEU200      0.0001
     54  N         51.7830   61.1460   59.9190 N.3   203  LEU203     -0.1245
     55  CA        51.0860   61.6230   61.1090 C.3   203  LEU203      0.1561
     56  C         49.7370   60.9270   61.2630 C.2   203  LEU203      0.2260
     57  O         49.2580   60.7290   62.3800 O.2   203  LEU203     -0.2867
     58  CB        50.8850   63.1390   61.0370 C.3   203  LEU203      0.0270
     59  CG        50.2560   63.8340   62.2350 C.3   203  LEU203      0.0019
     60  CD1       51.2220   63.8750   63.4130 C.3   203  LEU203      0.0001
     61  CD2       49.8180   65.2490   61.8650 C.3   203  LEU203      0.0001
     62  N         38.7470   61.5300   61.1730 N.3   249  LEU249     -0.1245
     63  CA        39.3720   62.7350   60.6420 C.3   249  LEU249      0.1561
     64  C         40.7930   62.4370   60.1690 C.2   249  LEU249      0.2260
     65  O         41.3740   63.2100   59.4050 O.2   249  LEU249     -0.2867
     66  CB        39.3980   63.8330   61.7080 C.3   249  LEU249      0.0270
     67  CG        39.9310   65.2020   61.3110 C.3   249  LEU249      0.0019
     68  CD1       38.9550   65.9220   60.3890 C.3   249  LEU249      0.0001
     69  CD2       40.2070   66.0490   62.5510 C.3   249  LEU249      0.0001
     70  N         41.8060   62.7210   56.0900 N.3   253  PHE253     -0.1241
     71  CA        42.9030   63.6230   55.7540 C.3   253  PHE253      0.1605
     72  C         44.0240   62.8670   55.0480 C.2   253  PHE253      0.2264
     73  O         44.7770   63.4520   54.2680 O.2   253  PHE253     -0.2867
     74  CB        43.4440   64.3010   57.0150 C.3   253  PHE253      0.0534
     75  CG        42.7600   65.5270   57.5450 C.ar  253  PHE253     -0.0203
     76  CD1       41.6230   65.9120   56.9830 C.ar  253  PHE253     -0.0042
     77  CD2       43.2270   66.1990   58.6430 C.ar  253  PHE253     -0.0042
     78  CE1       40.9200   67.0590   57.4480 C.ar  253  PHE253     -0.0003
     79  CE2       42.5010   67.3120   59.1390 C.ar  253  PHE253     -0.0003
     80  CZ        41.3970   67.7370   58.5200 C.ar  253  PHE253     -0.0000
     81  N         45.5210   63.4640   51.3390 N.3   257  HIS257     -0.1241
     82  CA        46.9410   63.8020   51.3100 C.3   257  HIS257      0.1621
     83  C         47.6900   62.9280   50.3090 C.2   257  HIS257      0.2264
     84  O         48.5530   63.4140   49.5750 O.2   257  HIS257     -0.2867
     85  CB        47.5560   63.6410   52.7020 C.3   257  HIS257      0.0745
     86  CG        46.8640   64.4730   53.6980 C.ar  257  HIS257      0.0817
     87  ND1       46.8920   64.1020   55.0250 N.ar  257  HIS257     -0.2268
     88  CD2       46.1470   65.6140   53.4930 C.ar  257  HIS257      0.1154
     89  CE1       46.1620   65.0370   55.6000 C.ar  257  HIS257      0.1986
     90  NE2       45.6940   65.9370   54.7280 N.ar  257  HIS257     -0.2212
@<TRIPOS>BOND
     1    84    83    2
     2    83    82    1
     3    82    81    1
     4    82    85    1
     5    85    86    1
     6    88    86   ar
     7    88    90   ar
     8    86    87   ar
     9    73    72    2
    10    90    89   ar
    11    87    89   ar
    12    72    71    1
    13    52    51    1
    14    71    70    1
    15    71    74    1
    16    50    51    1
    17    50    47    1
    18    51    53    1
    19    46    47    1
    20    48    47    1
    21    48    49    2
    22    76    78   ar
    23    76    75   ar
    24    74    75    1
    25    78    80   ar
    26    75    77   ar
    27    80    79   ar
    28    77    79   ar
    29    65    64    2
    30    54    55    1
    31    64    63    1
    32    68    67    1
    33    63    62    1
    34    63    66    1
    35    58    55    1
    36    58    59    1
    37    55    56    1
    38    56    57    2
    39    67    66    1
    40    67    69    1
    41     8    10   ar
    42     8     6   ar
    43    10     9   ar
    44    61    59    1
    45     5     6    1
    46     5     2    1
    47     6     7   ar
    48    59    60    1
    49     9     7   ar
    50     1     2    1
    51     2     3    1
    52    18    16    1
    53     3     4    2
    54    16    15    1
    55    16    17    1
    56    26    24    1
    57    15    12    1
    58    40    39   ar
    59    40    38   ar
    60    24    23    1
    61    23    25    1
    62    23    20    1
    63    39    37   ar
    64    12    11    1
    65    12    13    1
    66    13    19   am
    67    13    14    2
    68    19    20    1
    69    38    36   ar
    70    37    34   ar
    71    20    21    1
    72    36    34   ar
    73    36    35   ar
    74    34    32   ar
    75    35    33   ar
    76    21    22    2
    77    32    31    1
    78    32    33   ar
    79    31    28    1
    80    28    27    1
    81    28    29    1
    82    29    41   am
    83    29    30    2
    84    41    42    1
    85    45    42    1
    86    42    43    1
    87    43    44    2
