@<TRIPOS>MOLECULE
tmp/1izoC01.pdb
 187 181 0 0 0
SMALL
GASTEIGER

@<TRIPOS>ATOM
      1  N        130.4650   39.6980   19.7780 N.3    12  LEU12      -0.1231
      2  CA       130.6000   38.4430   19.0620 C.3    12  LEU12       0.1693
      3  C        131.2210   38.7280   17.7100 C.2    12  LEU12       0.2591
      4  O        132.1720   38.0700   17.3010 O.2    12  LEU12      -0.2718
      5  CB       129.2380   37.7780   18.8820 C.3    12  LEU12       0.0284
      6  CG       129.2430   36.4990   18.0420 C.3    12  LEU12       0.0019
      7  CD1      128.0050   35.6860   18.3460 C.3    12  LEU12       0.0001
      8  CD2      129.3070   36.8490   16.5640 C.3    12  LEU12       0.0001
      9  N        130.6760   39.7170   17.0150 N.am   13  LEU13      -0.1980
     10  CA       131.2060   40.0750   15.7100 C.3    13  LEU13       0.1596
     11  C        132.6660   40.4650   15.8580 C.2    13  LEU13       0.2287
     12  O        133.5270   39.9410   15.1530 O.2    13  LEU13      -0.2864
     13  CB       130.4160   41.2410   15.1020 C.3    13  LEU13       0.0297
     14  CG       129.0110   40.9530   14.5590 C.3    13  LEU13       0.0022
     15  CD1      128.3620   42.2550   14.1100 C.3    13  LEU13       0.0001
     16  CD2      129.0970   39.9710   13.3970 C.3    13  LEU13       0.0001
     17  N        122.1550   37.5600   19.9360 N.3    37  LEU37      -0.1245
     18  CA       121.2870   37.4740   18.7700 C.3    37  LEU37       0.1561
     19  C        119.8310   37.6570   19.1780 C.2    37  LEU37       0.2260
     20  O        118.9580   36.9010   18.7670 O.2    37  LEU37      -0.2867
     21  CB       121.4860   36.1160   18.0890 C.3    37  LEU37       0.0270
     22  CG       122.9360   35.7470   17.7550 C.3    37  LEU37       0.0019
     23  CD1      122.9710   34.3570   17.1170 C.3    37  LEU37       0.0001
     24  CD2      123.5270   36.8020   16.8130 C.3    37  LEU37       0.0001
     25  N        118.2040   29.7360   15.3660 N.3    65  LEU65      -0.1231
     26  CA       119.0270   30.8580   14.9040 C.3    65  LEU65       0.1678
     27  C        118.2210   31.9050   14.1420 C.2    65  LEU65       0.2434
     28  O        117.1660   31.6040   13.5710 O.2    65  LEU65      -0.2733
     29  CB       120.1550   30.3530   13.9950 C.3    65  LEU65       0.0284
     30  CG       121.3260   29.5940   14.6330 C.3    65  LEU65       0.0019
     31  CD1      122.1400   28.8920   13.5570 C.3    65  LEU65       0.0001
     32  CD2      122.1950   30.5650   15.4190 C.3    65  LEU65       0.0001
     33  N        118.7100   33.1560   14.1260 N.am   66  PRO66      -0.2729
     34  CA       118.0130   34.2280   13.4140 C.3    66  PRO66       0.1401
     35  C        117.8450   33.7940   11.9740 C.2    66  PRO66       0.2269
     36  O        118.7040   33.1050   11.4270 O.2    66  PRO66      -0.2865
     37  CB       118.9670   35.4080   13.5410 C.3    66  PRO66       0.0296
     38  CG       119.6350   35.1580   14.8560 C.3    66  PRO66       0.0237
     39  CD       119.9140   33.6680   14.8000 C.3    66  PRO66       0.0939
     40  N        118.3380   35.3110    9.4170 N.3    68  ARG68      -0.1231
     41  CA       119.3280   35.8670    8.4990 C.3    68  ARG68       0.1694
     42  C        120.2510   34.7640    7.9810 C.2    68  ARG68       0.2591
     43  O        120.6680   34.7970    6.8310 O.2    68  ARG68      -0.2718
     44  CB       120.1510   36.9930    9.1590 C.3    68  ARG68       0.0321
     45  CG       120.9350   36.6050   10.4050 C.3    68  ARG68       0.0489
     46  CD       121.7200   37.7980   10.9580 C.3    68  ARG68       0.2205
     47  NE       122.9630   38.0440   10.2310 N.pl3  68  ARG68      -0.0865
     48  CZ       123.3120   39.2160    9.7120 C.cat  68  ARG68       0.5346
     49  NH1      122.5160   40.2680    9.8270 N.pl3  68  ARG68       0.1354
     50  NH2      124.4610   39.3380    9.0790 N.pl3  68  ARG68       0.1354
     51  N        120.5410   33.7730    8.8180 N.am   69  VAL69      -0.1980
     52  CA       121.4070   32.6630    8.4130 C.3    69  VAL69       0.1595
     53  C        120.7370   31.8560    7.3010 C.2    69  VAL69       0.2287
     54  O        121.3860   31.4080    6.3460 O.2    69  VAL69      -0.2864
     55  CB       121.7030   31.7280    9.5970 C.3    69  VAL69       0.0276
     56  CG1      122.6360   30.6050    9.1520 C.3    69  VAL69       0.0022
     57  CG2      122.3160   32.5280   10.7390 C.3    69  VAL69       0.0022
     58  N        123.2350   31.6380    4.1960 N.3    73  LEU73      -0.1231
     59  CA       123.8640   30.3220    4.1390 C.3    73  LEU73       0.1693
     60  C        123.0120   29.0840    3.8110 C.2    73  LEU73       0.2592
     61  O        123.2150   28.4570    2.7740 O.2    73  LEU73      -0.2718
     62  CB       124.6380   30.0660    5.4360 C.3    73  LEU73       0.0284
     63  CG       125.5090   28.7930    5.4440 C.3    73  LEU73       0.0019
     64  CD1      126.5680   28.8800    4.3380 C.3    73  LEU73       0.0001
     65  CD2      126.1670   28.6210    6.8140 C.3    73  LEU73       0.0001
     66  N        122.0630   28.7340    4.6710 N.am   74  PHE74      -0.1976
     67  CA       121.2420   27.5270    4.4710 C.3    74  PHE74       0.1639
     68  C        120.1660   27.4960    3.3950 C.2    74  PHE74       0.2290
     69  O        120.1400   26.6110    2.5490 O.2    74  PHE74      -0.2864
     70  CB       120.5440   27.1520    5.7750 C.3    74  PHE74       0.0560
     71  CG       121.4560   27.1020    6.9560 C.ar   74  PHE74      -0.0200
     72  CD1      122.7550   26.6100    6.8300 C.ar   74  PHE74      -0.0042
     73  CD2      121.0040   27.5050    8.2080 C.ar   74  PHE74      -0.0042
     74  CE1      123.5830   26.5210    7.9290 C.ar   74  PHE74      -0.0003
     75  CE2      121.8260   27.4170    9.3140 C.ar   74  PHE74      -0.0003
     76  CZ       123.1210   26.9240    9.1770 C.ar   74  PHE74      -0.0000
     77  N        118.7510   22.0080    7.7790 N.3    80  GLN80      -0.1245
     78  CA       119.3540   22.4780    9.0190 C.3    80  GLN80       0.1566
     79  C        118.3640   22.9130   10.0920 C.2    80  GLN80       0.2260
     80  O        118.7060   22.9600   11.2740 O.2    80  GLN80      -0.2867
     81  CB       120.3500   23.6070    8.7210 C.3    80  GLN80       0.0367
     82  CG       121.4160   23.2140    7.6990 C.3    80  GLN80       0.0905
     83  CD       121.0790   23.6580    6.2880 C.2    80  GLN80       0.2608
     84  OE1      119.9140   23.8770    5.9560 O.2    80  GLN80      -0.2717
     85  NE2      122.1020   23.7860    5.4440 N.am   80  GLN80      -0.0878
     86  N        128.4170   31.7080    1.5330 N.3   165  VAL165     -0.1245
     87  CA       129.2360   31.2310    2.6520 C.3   165  VAL165      0.1561
     88  C        129.8610   32.3530    3.4600 C.2   165  VAL165      0.2260
     89  O        129.8430   32.3360    4.6860 O.2   165  VAL165     -0.2867
     90  CB       130.3960   30.3120    2.1760 C.3   165  VAL165      0.0252
     91  CG1      131.2200   29.8580    3.3710 C.3   165  VAL165      0.0019
     92  CG2      129.8500   29.1050    1.4290 C.3   165  VAL165      0.0019
     93  N        127.2060   34.3000    6.0890 N.3   168  PHE168     -0.1227
     94  CA       126.5720   33.7940    7.3080 C.3   168  PHE168      0.1736
     95  C        126.8980   34.4950    8.6220 C.2   168  PHE168      0.2596
     96  O        126.0320   34.6180    9.4720 O.2   168  PHE168     -0.2718
     97  CB       126.7910   32.2700    7.4360 C.3   168  PHE168      0.0547
     98  CG       128.0850   31.8680    8.1020 C.ar  168  PHE168     -0.0202
     99  CD1      128.3100   32.1310    9.4520 C.ar  168  PHE168     -0.0042
    100  CD2      129.0640   31.1810    7.3820 C.ar  168  PHE168     -0.0042
    101  CE1      129.4880   31.7170   10.0720 C.ar  168  PHE168     -0.0003
    102  CE2      130.2480   30.7610    7.9940 C.ar  168  PHE168     -0.0003
    103  CZ       130.4620   31.0280    9.3390 C.ar  168  PHE168     -0.0000
    104  N        128.1310   34.9550    8.8000 N.am  169  GLY169     -0.1957
    105  CA       128.4690   35.6220   10.0440 C.3   169  GLY169      0.1869
    106  C        128.8840   37.0760    9.9050 C.2   169  GLY169      0.2309
    107  O        129.6030   37.5940   10.7600 O.2   169  GLY169     -0.2863
    108  N        127.0340   24.0900   -2.8480 N.3   237  ARG237     -0.1231
    109  CA       127.7080   25.1510   -2.0990 C.3   237  ARG237      0.1679
    110  C        128.8140   24.6440   -1.1830 C.2   237  ARG237      0.2434
    111  O        129.9600   25.0950   -1.2550 O.2   237  ARG237     -0.2733
    112  CB       126.7140   25.9430   -1.2500 C.3   237  ARG237      0.0321
    113  CG       127.4020   27.0220   -0.4290 C.3   237  ARG237      0.0489
    114  CD       126.4860   27.7260    0.5610 C.3   237  ARG237      0.2205
    115  NE       126.0780   26.8890    1.6890 N.pl3 237  ARG237     -0.0865
    116  CZ       125.0220   26.0810    1.6780 C.cat 237  ARG237      0.5346
    117  NH1      124.2670   25.9980    0.5940 N.pl3 237  ARG237      0.1354
    118  NH2      124.7140   25.3690    2.7540 N.pl3 237  ARG237      0.1354
    119  N        128.4850   23.7050   -0.2890 N.am  238  PRO238     -0.2729
    120  CA       129.4990   23.1760    0.6230 C.3   238  PRO238      0.1401
    121  C        130.7300   22.6060   -0.1120 C.2   238  PRO238      0.2269
    122  O        131.8750   22.8060    0.3250 O.2   238  PRO238     -0.2865
    123  CB       128.7310   22.1130    1.3940 C.3   238  PRO238      0.0296
    124  CG       127.2950   22.5590    1.3000 C.3   238  PRO238      0.0237
    125  CD       127.2040   22.9990   -0.1130 C.3   238  PRO238      0.0939
    126  N        132.8410   25.2310   -0.9770 N.3   241  ALA241     -0.1245
    127  CA       133.3990   25.7880    0.2550 C.3   241  ALA241      0.1562
    128  C        134.6710   25.0730    0.7220 C.2   241  ALA241      0.2260
    129  O        135.4280   25.6090    1.5290 O.2   241  ALA241     -0.2867
    130  CB       132.3470   25.7590    1.3610 C.3   241  ALA241      0.0290
    131  N        136.7530   27.6580   10.7780 N.3   284  PHE284     -0.1227
    132  CA       135.7830   27.6350    9.6900 C.3   284  PHE284      0.1736
    133  C        134.4010   27.6970   10.3370 C.2   284  PHE284      0.2596
    134  O        133.8320   28.7820   10.4600 O.2   284  PHE284     -0.2718
    135  CB       135.9150   26.3760    8.8310 C.3   284  PHE284      0.0547
    136  CG       135.3390   26.5310    7.4430 C.ar  284  PHE284     -0.0202
    137  CD1      134.5710   27.6520    7.1160 C.ar  284  PHE284     -0.0042
    138  CD2      135.5690   25.5740    6.4610 C.ar  284  PHE284     -0.0042
    139  CE1      134.0450   27.8170    5.8370 C.ar  284  PHE284     -0.0003
    140  CE2      135.0400   25.7360    5.1720 C.ar  284  PHE284     -0.0003
    141  CZ       134.2800   26.8530    4.8590 C.ar  284  PHE284     -0.0000
    142  N        133.8640   26.5490   10.7480 N.am  285  GLY285     -0.1943
    143  CA       132.5720   26.5360   11.4150 C.3   285  GLY285      0.1998
    144  C        132.8150   26.9690   12.8480 C.2   285  GLY285      0.2481
    145  O        133.3920   26.2070   13.6150 O.2   285  GLY285     -0.2729
    146  N        132.3770   28.1720   13.2560 N.am  286  PRO286     -0.2715
    147  CA       132.6010   28.6450   14.6250 C.3   286  PRO286      0.1536
    148  C        131.7920   27.9930   15.7440 C.2   286  PRO286      0.2599
    149  O        132.3360   27.6680   16.7960 O.2   286  PRO286     -0.2715
    150  CB       132.3100   30.1340   14.5140 C.3   286  PRO286      0.0310
    151  CG       131.1420   30.1380   13.5790 C.3   286  PRO286      0.0237
    152  CD       131.5330   29.1230   12.5100 C.3   286  PRO286      0.0939
    153  N        130.4980   27.8010   15.5280 N.am  287  PHE287     -0.1960
    154  CA       129.6560   27.2290   16.5670 C.3   287  PHE287      0.1771
    155  C        128.2850   26.8540   16.0280 C.2   287  PHE287      0.2619
    156  O        127.9070   27.2570   14.9270 O.2   287  PHE287     -0.2715
    157  CB       129.5070   28.2380   17.7130 C.3   287  PHE287      0.0574
    158  CG       129.2900   29.6580   17.2480 C.ar  287  PHE287     -0.0200
    159  CD1      128.2330   29.9740   16.4010 C.ar  287  PHE287     -0.0042
    160  CD2      130.1490   30.6770   17.6510 C.ar  287  PHE287     -0.0042
    161  CE1      128.0380   31.2820   15.9620 C.ar  287  PHE287     -0.0003
    162  CE2      129.9620   31.9910   17.2160 C.ar  287  PHE287     -0.0003
    163  CZ       128.9070   32.2950   16.3720 C.ar  287  PHE287     -0.0000
    164  N        127.5350   26.0810   16.8030 N.am  288  LEU288     -0.1977
    165  CA       126.2130   25.6610   16.3790 C.3   288  LEU288      0.1596
    166  C        125.1590   26.2050   17.3330 C.2   288  LEU288      0.2287
    167  O        125.4670   26.5930   18.4620 O.2   288  LEU288     -0.2864
    168  CB       126.1540   24.1330   16.3010 C.3   288  LEU288      0.0297
    169  CG       127.0980   23.4530   15.2950 C.3   288  LEU288      0.0022
    170  CD1      127.1200   21.9380   15.5590 C.3   288  LEU288      0.0001
    171  CD2      126.6550   23.7440   13.8650 C.3   288  LEU288      0.0001
    172  N        132.4330   25.2610   18.5860 N.3   313  LEU313     -0.1245
    173  CA       133.0680   24.2840   17.7200 C.3   313  LEU313      0.1561
    174  C        134.5850   24.4970   17.7320 C.2   313  LEU313      0.2260
    175  O        135.3590   23.5740   17.9970 O.2   313  LEU313     -0.2867
    176  CB       132.5250   24.4380   16.2990 C.3   313  LEU313      0.0270
    177  CG       131.4320   23.4920   15.7970 C.3   313  LEU313      0.0019
    178  CD1      130.4030   23.2140   16.8840 C.3   313  LEU313      0.0001
    179  CD2      130.7920   24.1080   14.5630 C.3   313  LEU313      0.0001
    180  N        134.3710   35.9200   10.3130 N.3   395  MET395     -0.1245
    181  CA       133.7600   34.6190   10.0660 C.3   395  MET395      0.1570
    182  C        132.9850   34.6120    8.7480 C.2   395  MET395      0.2261
    183  O        132.0380   35.3820    8.5700 O.2   395  MET395     -0.2867
    184  CB       132.7950   34.2620   11.1930 C.3   395  MET395      0.0387
    185  CG       133.3980   34.2510   12.5780 C.3   395  MET395      0.0595
    186  SD       132.1140   33.9680   13.8180 S.3   395  MET395     -0.1393
    187  CE       131.6750   35.6530   14.2580 C.3   395  MET395      0.0692
@<TRIPOS>BOND
     1   108   109    1
     2   109   112    1
     3   109   110    1
     4   111   110    2
     5   112   113    1
     6   110   119   am
     7   126   127    1
     8   113   114    1
     9   119   125    1
    10   119   120    1
    11   125   124    1
    12   121   122    2
    13   121   120    1
    14   127   128    1
    15   127   130    1
    16   114   115    1
    17   117   116    1
    18   120   123    1
    19   128   129    2
    20   124   123    1
    21    92    90    1
    22    86    87    1
    23   116   115    2
    24   116   118    1
    25    90    87    1
    26    90    91    1
    27    69    68    2
    28    87    88    1
    29    61    60    2
    30    68    67    1
    31    88    89    2
    32    60    59    1
    33    60    66   am
    34    59    58    1
    35    59    62    1
    36    64    63    1
    37    67    66    1
    38    67    70    1
    39   141   140   ar
    40   141   139   ar
    41   140   138   ar
    42    62    63    1
    43    85    83   am
    44    63    65    1
    45    70    71    1
    46   139   137   ar
    47    84    83    2
    48    93    94    1
    49    83    82    1
    50    54    53    2
    51   138   136   ar
    52    72    71   ar
    53    72    74   ar
    54    43    42    2
    55    71    73   ar
    56   137   136   ar
    57    53    52    1
    58    94    97    1
    59    94    95    1
    60   100   102   ar
    61   100    98   ar
    62    97    98    1
    63   136   135    1
    64    82    81    1
    65    77    78    1
    66    74    76   ar
    67    42    41    1
    68    42    51   am
    69   102   103   ar
    70    98    99   ar
    71    73    75   ar
    72    52    51    1
    73    52    55    1
    74    41    44    1
    75    41    40    1
    76   183   182    2
    77    95   104   am
    78    95    96    2
    79    81    78    1
    80   182   181    1
    81   104   105    1
    82   135   132    1
    83    78    79    1
    84    50    48    1
    85    56    55    1
    86    44    45    1
    87    76    75   ar
    88   103   101   ar
    89    99   101   ar
    90    55    57    1
    91   132   133    1
    92   132   131    1
    93    48    49    1
    94    48    47    2
    95   106   105    1
    96   106   107    2
    97   181   180    1
    98   181   184    1
    99    79    80    2
   100    47    46    1
   101   133   134    2
   102   133   142   am
   103    45    46    1
   104   142   143    1
   105   184   185    1
   106   143   144    1
   107    36    35    2
   108    35    34    1
   109   152   146    1
   110   152   151    1
   111   185   186    1
   112   144   146   am
   113   144   145    2
   114   146   147    1
   115    16    14    1
   116    34    37    1
   117    34    33    1
   118    37    38    1
   119    31    30    1
   120    28    27    2
   121   151   150    1
   122   186   187    1
   123   171   169    1
   124    29    30    1
   125    29    26    1
   126    15    14    1
   127    33    27   am
   128    33    39    1
   129    27    26    1
   130   150   147    1
   131    14    13    1
   132   179   177    1
   133   147   148    1
   134    30    32    1
   135    39    38    1
   136    26    25    1
   137   156   155    2
   138    13    10    1
   139    12    11    2
   140   169   170    1
   141   169   168    1
   142   153   148   am
   143   153   154    1
   144    10    11    1
   145    10     9    1
   146   148   149    2
   147   177   176    1
   148   177   178    1
   149   161   163   ar
   150   161   159   ar
   151   155   154    1
   152   155   164   am
   153   176   173    1
   154   168   165    1
   155   163   162   ar
   156   165   164    1
   157   165   166    1
   158   159   158   ar
   159     8     6    1
   160   154   157    1
   161    24    22    1
   162     9     3   am
   163    23    22    1
   164   162   160   ar
   165   158   160   ar
   166   158   157    1
   167     4     3    2
   168   166   167    2
   169     3     2    1
   170   173   174    1
   171   173   172    1
   172   174   175    2
   173    22    21    1
   174     6     7    1
   175     6     5    1
   176    21    18    1
   177    20    19    2
   178    18    19    1
   179    18    17    1
   180     5     2    1
   181     2     1    1
