@<TRIPOS>MOLECULE
tmp/1j01A00.pdb
 157 153 0 0 0
SMALL
GASTEIGER

@<TRIPOS>ATOM
      1  N         20.7000   65.0570   45.6560 N.3    43  GLU43      -0.1231
      2  CA        20.1060   64.8640   44.3430 C.3    43  GLU43       0.1699
      3  C         18.9450   65.8360   44.1510 C.2    43  GLU43       0.2592
      4  O         18.7160   66.3160   43.0390 O.2    43  GLU43      -0.2718
      5  CB        19.6010   63.4200   44.1680 C.3    43  GLU43       0.0402
      6  CG        18.7300   63.2340   42.9210 C.3    43  GLU43       0.1161
      7  CD        18.2470   61.8070   42.7230 C.2    43  GLU43       0.3649
      8  OE1       17.9490   61.1320   43.7290 O.co2  43  GLU43      -0.2457
      9  OE2       18.1500   61.3680   41.5560 O.co2  43  GLU43      -0.2457
     10  N         18.2350   66.1370   45.2400 N.am   44  ASN44      -0.1974
     11  CA        17.0710   67.0300   45.1990 C.3    44  ASN44       0.1688
     12  C         16.8670   67.9540   46.3980 C.2    44  ASN44       0.2292
     13  O         16.2860   69.0280   46.2550 O.2    44  ASN44      -0.2864
     14  CB        15.7820   66.2080   45.0600 C.3    44  ASN44       0.1181
     15  CG        15.5800   65.6560   43.6700 C.2    44  ASN44       0.2629
     16  OD1       15.4140   66.4090   42.7170 O.2    44  ASN44      -0.2716
     17  ND2       15.5830   64.3300   43.5470 N.am   44  ASN44      -0.0877
     18  N         17.5130   71.9070   46.1210 N.3    47  LYS47      -0.1245
     19  CA        16.9880   72.6590   44.9880 C.3    47  LYS47       0.1561
     20  C         15.9910   73.6930   45.4960 C.2    47  LYS47       0.2260
     21  O         15.5580   73.6430   46.6510 O.2    47  LYS47      -0.2867
     22  CB        16.3120   71.7150   43.9930 C.3    47  LYS47       0.0271
     23  CG        17.3000   70.8110   43.2860 C.3    47  LYS47       0.0035
     24  CD        16.6250   69.7740   42.4060 C.3    47  LYS47       0.0206
     25  CE        17.6940   68.9000   41.7500 C.3    47  LYS47       0.1093
     26  NZ        17.1350   67.8040   40.9070 N.3    47  LYS47      -0.1314
     27  N         23.9320   71.6970   45.3150 N.3    80  HIS80      -0.1241
     28  CA        23.2040   71.7310   44.0450 C.3    80  HIS80       0.1621
     29  C         21.7270   71.9860   44.3620 C.2    80  HIS80       0.2264
     30  O         21.1180   71.1720   45.0480 O.2    80  HIS80      -0.2867
     31  CB        23.3480   70.3710   43.3420 C.3    80  HIS80       0.0745
     32  CG        22.6560   70.2870   42.0160 C.ar   80  HIS80       0.0817
     33  ND1       23.1740   70.8420   40.8660 N.ar   80  HIS80      -0.2268
     34  CD2       21.4760   69.7220   41.6610 C.ar   80  HIS80       0.1154
     35  CE1       22.3450   70.6240   39.8600 C.ar   80  HIS80       0.1986
     36  NE2       21.3060   69.9460   40.3170 N.ar   80  HIS80      -0.2212
     37  N         18.2610   77.7310   39.1030 N.3    84  TRP84      -0.1241
     38  CA        17.9840   76.7720   38.0310 C.3    84  TRP84       0.1605
     39  C         16.5490   76.9740   37.5370 C.2    84  TRP84       0.2264
     40  O         15.6450   77.2290   38.3300 O.2    84  TRP84      -0.2867
     41  CB        18.1920   75.3480   38.5650 C.3    84  TRP84       0.0550
     42  CG        18.0730   74.2390   37.5490 C.ar   84  TRP84       0.0003
     43  CD1       18.3840   74.2990   36.2210 C.ar   84  TRP84       0.0946
     44  CD2       17.6800   72.8830   37.8080 C.ar   84  TRP84       0.0152
     45  NE1       18.2100   73.0640   35.6370 N.ar   84  TRP84      -0.2442
     46  CE2       17.7800   72.1790   36.5900 C.ar   84  TRP84       0.0810
     47  CE3       17.2530   72.1970   38.9540 C.ar   84  TRP84       0.0012
     48  CZ2       17.4650   70.8160   36.4810 C.ar   84  TRP84       0.0191
     49  CZ3       16.9400   70.8420   38.8480 C.ar   84  TRP84       0.0001
     50  CH2       17.0490   70.1680   37.6190 C.ar   84  TRP84       0.0015
     51  N         14.5790   74.7600   36.2220 N.3    86  SER86      -0.1202
     52  CA        13.7450   73.6020   36.5050 C.3    86  SER86       0.2020
     53  C         13.4720   73.4570   38.0010 C.2    86  SER86       0.2618
     54  O         14.2330   73.9450   38.8330 O.2    86  SER86      -0.2717
     55  CB        14.4200   72.3400   35.9620 C.3    86  SER86       0.2103
     56  OG        13.5400   71.2350   36.0100 O.3    86  SER86      -0.2182
     57  N         12.3810   72.7780   38.3350 N.am   87  GLN87      -0.1979
     58  CA        11.9930   72.5840   39.7280 C.3    87  GLN87       0.1601
     59  C         11.9530   73.9270   40.4540 C.2    87  GLN87       0.2287
     60  O         12.4620   74.0770   41.5720 O.2    87  GLN87      -0.2864
     61  CB        12.9490   71.5990   40.4220 C.3    87  GLN87       0.0394
     62  CG        12.8260   70.1690   39.8690 C.3    87  GLN87       0.0908
     63  CD        13.6430   69.1440   40.6320 C.2    87  GLN87       0.2608
     64  OE1       13.3460   68.8180   41.7820 O.2    87  GLN87      -0.2717
     65  NE2       14.6820   68.6310   39.9920 N.am   87  GLN87      -0.0878
     66  N         22.7020   76.7630   37.1490 N.3   126  ASN126     -0.1225
     67  CA        22.6780   75.4900   36.4400 C.3   126  ASN126      0.1785
     68  C         21.9140   75.5570   35.1170 C.2   126  ASN126      0.2597
     69  O         20.8350   76.1430   35.0490 O.2   126  ASN126     -0.2718
     70  CB        22.0550   74.4200   37.3490 C.3   126  ASN126      0.1169
     71  CG        22.1650   73.0200   36.7710 C.2   126  ASN126      0.2627
     72  OD1       23.1760   72.6700   36.1690 O.2   126  ASN126     -0.2716
     73  ND2       21.1280   72.2090   36.9680 N.am  126  ASN126     -0.0877
     74  N         22.4950   74.9750   34.0680 N.am  127  GLU127     -0.1979
     75  CA        21.8570   74.9160   32.7510 C.3   127  GLU127      0.1602
     76  C         21.3920   76.2550   32.1760 C.2   127  GLU127      0.2287
     77  O         20.2320   76.4050   31.7840 O.2   127  GLU127     -0.2864
     78  CB        20.6760   73.9420   32.8150 C.3   127  GLU127      0.0415
     79  CG        21.1000   72.4720   32.8820 C.3   127  GLU127      0.1163
     80  CD        19.9540   71.5350   33.2100 C.2   127  GLU127      0.3649
     81  OE1       18.7840   71.9140   32.9830 O.co2 127  GLU127     -0.2457
     82  OE2       20.2260   70.4130   33.6880 O.co2 127  GLU127     -0.2457
     83  N         24.9870   70.6810   30.9300 N.3   171  TYR171     -0.1241
     84  CA        25.1120   69.3760   30.2760 C.3   171  TYR171      0.1605
     85  C         25.3100   69.5780   28.7760 C.2   171  TYR171      0.2264
     86  O         24.9980   70.6440   28.2400 O.2   171  TYR171     -0.2867
     87  CB        23.8600   68.5260   30.5340 C.3   171  TYR171      0.0534
     88  CG        22.5900   69.0700   29.9130 C.ar  171  TYR171     -0.0201
     89  CD1       22.2450   68.7670   28.5930 C.ar  171  TYR171     -0.0009
     90  CD2       21.7380   69.8940   30.6420 C.ar  171  TYR171     -0.0009
     91  CE1       21.0710   69.2750   28.0180 C.ar  171  TYR171      0.0417
     92  CE2       20.5690   70.4070   30.0770 C.ar  171  TYR171      0.0417
     93  CZ        20.2420   70.0930   28.7660 C.ar  171  TYR171      0.1957
     94  OH        19.0810   70.5890   28.2160 O.3   171  TYR171     -0.2866
     95  N         27.9410   68.2400   33.9350 N.3   203  GLN203     -0.1245
     96  CA        26.9930   67.2110   34.3570 C.3   203  GLN203      0.1566
     97  C         27.3660   65.8270   33.8500 C.2   203  GLN203      0.2260
     98  O         27.3310   64.8540   34.5970 O.2   203  GLN203     -0.2867
     99  CB        25.5790   67.5760   33.9040 C.3   203  GLN203      0.0367
    100  CG        24.9490   68.6890   34.7310 C.3   203  GLN203      0.0905
    101  CD        23.5060   68.9620   34.3410 C.2   203  GLN203      0.2608
    102  OE1       22.7550   68.0400   34.0280 O.2   203  GLN203     -0.2717
    103  NE2       23.1070   70.2320   34.3780 N.am  203  GLN203     -0.0878
    104  N         25.8180   63.8120   31.5540 N.3   205  HIS205     -0.1241
    105  CA        24.7260   62.8590   31.4060 C.3   205  HIS205      0.1621
    106  C         24.9300   62.4110   29.9680 C.2   205  HIS205      0.2264
    107  O         24.4370   63.0390   29.0340 O.2   205  HIS205     -0.2867
    108  CB        23.3710   63.5460   31.5610 C.3   205  HIS205      0.0745
    109  CG        22.9980   63.8270   32.9850 C.ar  205  HIS205      0.0817
    110  ND1       22.8910   62.8320   33.9340 N.ar  205  HIS205     -0.2268
    111  CD2       22.6930   64.9850   33.6170 C.ar  205  HIS205      0.1154
    112  CE1       22.5340   63.3650   35.0890 C.ar  205  HIS205      0.1986
    113  NE2       22.4070   64.6700   34.9250 N.ar  205  HIS205     -0.2212
    114  N         27.4370   65.0970   37.4070 N.3   233  GLU233     -0.1245
    115  CA        26.2330   64.2660   37.3970 C.3   233  GLU233      0.1567
    116  C         26.3680   63.1130   36.4150 C.2   233  GLU233      0.2260
    117  O         25.4550   62.8250   35.6380 O.2   233  GLU233     -0.2867
    118  CB        25.0270   65.1310   37.0320 C.3   233  GLU233      0.0388
    119  CG        24.8610   66.3600   37.9310 C.3   233  GLU233      0.1160
    120  CD        23.6180   67.1500   37.5990 C.2   233  GLU233      0.3649
    121  OE1       22.6990   66.5590   36.9850 O.co2 233  GLU233     -0.2457
    122  OE2       23.5510   68.3510   37.9590 O.co2 233  GLU233     -0.2457
    123  N         25.4920   60.5290   39.2570 N.3   273  TRP273     -0.1241
    124  CA        24.1470   60.9130   39.6650 C.3   273  TRP273      0.1605
    125  C         23.3130   59.7660   40.2300 C.2   273  TRP273      0.2264
    126  O         22.2860   59.3840   39.6700 O.2   273  TRP273     -0.2867
    127  CB        23.4140   61.5720   38.4920 C.3   273  TRP273      0.0550
    128  CG        22.3870   62.5730   38.9320 C.ar  273  TRP273      0.0003
    129  CD1       21.0530   62.5580   38.6490 C.ar  273  TRP273      0.0946
    130  CD2       22.6100   63.7260   39.7560 C.ar  273  TRP273      0.0152
    131  NE1       20.4300   63.6300   39.2460 N.ar  273  TRP273     -0.2442
    132  CE2       21.3630   64.3620   39.9300 C.ar  273  TRP273      0.0810
    133  CE3       23.7430   64.2830   40.3620 C.ar  273  TRP273      0.0012
    134  CZ2       21.2160   65.5290   40.6900 C.ar  273  TRP273      0.0191
    135  CZ3       23.5950   65.4470   41.1190 C.ar  273  TRP273      0.0001
    136  CH2       22.3430   66.0530   41.2730 C.ar  273  TRP273      0.0015
    137  N         17.2660   58.3870   37.8910 N.3   281  TRP281     -0.1241
    138  CA        16.2430   59.2830   37.3570 C.3   281  TRP281      0.1605
    139  C         15.9780   59.1150   35.8620 C.2   281  TRP281      0.2264
    140  O         14.9940   59.6450   35.3380 O.2   281  TRP281     -0.2867
    141  CB        16.6730   60.7350   37.5830 C.3   281  TRP281      0.0550
    142  CG        17.7590   61.1780   36.6240 C.ar  281  TRP281      0.0003
    143  CD1       19.0220   60.6730   36.5230 C.ar  281  TRP281      0.0946
    144  CD2       17.6550   62.1950   35.6130 C.ar  281  TRP281      0.0152
    145  NE1       19.7110   61.3060   35.5100 N.ar  281  TRP281     -0.2442
    146  CE2       18.8920   62.2440   34.9370 C.ar  281  TRP281      0.0810
    147  CE3       16.6320   63.0640   35.2120 C.ar  281  TRP281      0.0012
    148  CZ2       19.1360   63.1330   33.8820 C.ar  281  TRP281      0.0191
    149  CZ3       16.8750   63.9460   34.1590 C.ar  281  TRP281      0.0001
    150  CH2       18.1170   63.9720   33.5100 C.ar  281  TRP281      0.0015
    151  N         12.4340   59.7880   32.7490 N.3   285  VAL285     -0.1245
    152  CA        12.6690   60.9770   31.9370 C.3   285  VAL285      0.1561
    153  C         12.9730   60.6470   30.4810 C.2   285  VAL285      0.2260
    154  O         12.5970   61.3940   29.5790 O.2   285  VAL285     -0.2867
    155  CB        13.8460   61.8080   32.5020 C.3   285  VAL285      0.0252
    156  CG1       14.1160   63.0190   31.6100 C.3   285  VAL285      0.0019
    157  CG2       13.5270   62.2560   33.9210 C.3   285  VAL285      0.0019
@<TRIPOS>BOND
     1    91    89   ar
     2    91    93   ar
     3    94    93    1
     4    86    85    2
     5    89    88   ar
     6    93    92   ar
     7    85    84    1
     8   107   106    2
     9   154   153    2
    10    88    87    1
    11    88    90   ar
    12   106   105    1
    13    92    90   ar
    14    84    87    1
    15    84    83    1
    16   153   152    1
    17   105   104    1
    18   105   108    1
    19   108   109    1
    20   156   155    1
    21    77    76    2
    22   152   155    1
    23   152   151    1
    24    76    75    1
    25   155   157    1
    26    75    78    1
    27    75    74    1
    28    78    79    1
    29    79    80    1
    30    81    80   ar
    31   109   111   ar
    32   109   110   ar
    33    80    82   ar
    34   150   148   ar
    35   150   149   ar
    36   111   113   ar
    37    97    96    1
    38    97    98    2
    39   148   146   ar
    40    99    96    1
    41    99   100    1
    42   110   112   ar
    43    95    96    1
    44   102   101    2
    45    74    68   am
    46   149   147   ar
    47   101   103   am
    48   101   100    1
    49   113   112   ar
    50   146   145   ar
    51   146   144   ar
    52    69    68    2
    53    68    67    1
    54   147   144   ar
    55   140   139    2
    56   145   143   ar
    57   144   142   ar
    58    45    43   ar
    59    45    46   ar
    60   117   116    2
    61   139   138    1
    62    55    56    1
    63    55    52    1
    64    72    71    2
    65    43    42   ar
    66    51    52    1
    67   116   115    1
    68    67    66    1
    69    67    70    1
    70    48    46   ar
    71    48    50   ar
    72    52    53    1
    73   143   142   ar
    74    46    44   ar
    75   142   141    1
    76    71    73   am
    77    71    70    1
    78   121   120   ar
    79   118   115    1
    80   118   119    1
    81   138   141    1
    82   138   137    1
    83   115   114    1
    84    39    38    1
    85    39    40    2
    86    42    44   ar
    87    42    41    1
    88   120   119    1
    89   120   122   ar
    90    50    49   ar
    91    44    47   ar
    92    53    57   am
    93    53    54    2
    94    38    41    1
    95    38    37    1
    96    57    58    1
    97   127   128    1
    98   127   124    1
    99   129   128   ar
   100   129   131   ar
   101    49    47   ar
   102   128   130   ar
   103   131   132   ar
   104   123   124    1
   105   124   125    1
   106   126   125    2
   107    58    61    1
   108    58    59    1
   109   130   132   ar
   110   130   133   ar
   111    35    36   ar
   112    35    33   ar
   113    62    61    1
   114    62    63    1
   115   132   134   ar
   116    65    63   am
   117    36    34   ar
   118   133   135   ar
   119    59    60    2
   120    63    64    2
   121   134   136   ar
   122    33    32   ar
   123    26    25    1
   124   135   136   ar
   125     9     7   ar
   126    34    32   ar
   127    25    24    1
   128    32    31    1
   129    24    23    1
   130    16    15    2
   131     7     6    1
   132     7     8   ar
   133     6     5    1
   134     4     3    2
   135    23    22    1
   136    31    28    1
   137    17    15   am
   138    15    14    1
   139    22    19    1
   140    28    29    1
   141    28    27    1
   142     3     2    1
   143     3    10   am
   144     5     2    1
   145     2     1    1
   146    29    30    2
   147    19    20    1
   148    19    18    1
   149    14    11    1
   150    11    10    1
   151    11    12    1
   152    20    21    2
   153    13    12    2
