@<TRIPOS>MOLECULE
tmp/1j06B02.pdb
 114 116 0 0 0
SMALL
GASTEIGER

@<TRIPOS>ATOM
      1  N         11.4390   -9.8640  -46.5020 N.3    69  TYR69      -0.1241
      2  CA        11.2250  -10.9440  -45.5610 C.3    69  TYR69       0.1605
      3  C          9.7680  -10.8820  -45.0970 C.2    69  TYR69       0.2264
      4  O          9.1830   -9.7930  -44.9730 O.2    69  TYR69      -0.2867
      5  CB        12.2090  -10.7700  -44.3960 C.3    69  TYR69       0.0534
      6  CG        11.9390  -11.6460  -43.2000 C.ar   69  TYR69      -0.0201
      7  CD1       11.0250  -11.2420  -42.2150 C.ar   69  TYR69      -0.0009
      8  CD2       12.5850  -12.8810  -43.0450 C.ar   69  TYR69      -0.0009
      9  CE1       10.7610  -12.0380  -41.1110 C.ar   69  TYR69       0.0417
     10  CE2       12.3270  -13.6880  -41.9320 C.ar   69  TYR69       0.0417
     11  CZ        11.4140  -13.2580  -40.9660 C.ar   69  TYR69       0.1957
     12  OH        11.1470  -14.0260  -39.8440 O.3    69  TYR69      -0.2866
     13  N          7.0700  -12.1160  -42.1200 N.3    71  ASP71      -0.1239
     14  CA         7.0220  -12.6180  -40.7530 C.3    71  ASP71       0.1674
     15  C          6.2590  -13.9250  -40.5820 C.2    71  ASP71       0.2266
     16  O          5.1150  -14.0740  -41.0360 O.2    71  ASP71      -0.2867
     17  CB         6.4490  -11.5780  -39.8110 C.3    71  ASP71       0.1410
     18  CG         6.7600  -11.8980  -38.3810 C.2    71  ASP71       0.3668
     19  OD1        5.9330  -12.5440  -37.6960 O.co2  71  ASP71      -0.2456
     20  OD2        7.8730  -11.5360  -37.9600 O.co2  71  ASP71      -0.2456
     21  N         13.2430   -2.9760  -43.8080 N.3   121  TYR121     -0.1241
     22  CA        13.3670   -4.3220  -44.3800 C.3   121  TYR121      0.1605
     23  C         11.9940   -4.8510  -44.8270 C.2   121  TYR121      0.2264
     24  O         11.9030   -5.9360  -45.3990 O.2   121  TYR121     -0.2867
     25  CB        14.0160   -5.3090  -43.3730 C.3   121  TYR121      0.0534
     26  CG        13.1170   -5.7700  -42.2210 C.ar  121  TYR121     -0.0201
     27  CD1       12.1470   -6.7520  -42.4090 C.ar  121  TYR121     -0.0009
     28  CD2       13.1720   -5.1450  -40.9710 C.ar  121  TYR121     -0.0009
     29  CE1       11.2340   -7.0900  -41.3810 C.ar  121  TYR121      0.0417
     30  CE2       12.2680   -5.4720  -39.9330 C.ar  121  TYR121      0.0417
     31  CZ        11.2970   -6.4370  -40.1460 C.ar  121  TYR121      0.1957
     32  OH        10.3450   -6.6930  -39.1690 O.3   121  TYR121     -0.2866
     33  N         19.1910  -11.5990  -42.1280 N.3   276  TRP276     -0.1241
     34  CA        19.3390  -11.5720  -40.6910 C.3   276  TRP276      0.1605
     35  C         20.5890  -12.2270  -40.1220 C.2   276  TRP276      0.2264
     36  O         20.7130  -12.3790  -38.9180 O.2   276  TRP276     -0.2867
     37  CB        18.1000  -12.1890  -40.0620 C.3   276  TRP276      0.0550
     38  CG        16.8910  -11.4090  -40.4390 C.ar  276  TRP276      0.0003
     39  CD1       15.9060  -11.7850  -41.3120 C.ar  276  TRP276      0.0946
     40  CD2       16.5700  -10.0690  -40.0230 C.ar  276  TRP276      0.0152
     41  NE1       14.9960  -10.7660  -41.4670 N.ar  276  TRP276     -0.2442
     42  CE2       15.3770   -9.7000  -40.6900 C.ar  276  TRP276      0.0810
     43  CE3       17.1760   -9.1440  -39.1550 C.ar  276  TRP276      0.0012
     44  CZ2       14.7740   -8.4360  -40.5140 C.ar  276  TRP276      0.0191
     45  CZ3       16.5780   -7.8900  -38.9830 C.ar  276  TRP276      0.0001
     46  CH2       15.3900   -7.5520  -39.6610 C.ar  276  TRP276      0.0015
     47  N         15.2380   -4.6490  -32.3060 N.3   285  PHE285     -0.1227
     48  CA        15.1700   -3.2730  -32.7850 C.3   285  PHE285      0.1736
     49  C         16.4310   -2.8750  -33.5000 C.2   285  PHE285      0.2595
     50  O         16.9150   -1.7500  -33.3680 O.2   285  PHE285     -0.2718
     51  CB        14.9110   -2.2590  -31.6570 C.3   285  PHE285      0.0547
     52  CG        14.0220   -1.1110  -32.0960 C.ar  285  PHE285     -0.0202
     53  CD1       14.2930   -0.4250  -33.2740 C.ar  285  PHE285     -0.0042
     54  CD2       12.8590   -0.7940  -31.3940 C.ar  285  PHE285     -0.0042
     55  CE1       13.4260    0.5440  -33.7550 C.ar  285  PHE285     -0.0003
     56  CE2       11.9840    0.1830  -31.8660 C.ar  285  PHE285     -0.0003
     57  CZ        12.2660    0.8550  -33.0570 C.ar  285  PHE285     -0.0000
     58  N         16.9720   -3.8130  -34.2550 N.am  286  ARG286     -0.1966
     59  CA        18.1750   -3.5620  -35.0040 C.3   286  ARG286      0.1729
     60  C         17.9090   -4.2370  -36.3690 C.2   286  ARG286      0.2616
     61  O         17.3210   -5.3270  -36.4420 O.2   286  ARG286     -0.2715
     62  CB        19.3570   -4.1160  -34.2090 C.3   286  ARG286      0.0348
     63  CG        20.5850   -3.2060  -34.2830 C.3   286  ARG286      0.0492
     64  CD        20.8880   -2.3350  -33.0660 C.3   286  ARG286      0.2205
     65  NE        19.7380   -1.5890  -32.6230 N.pl3 286  ARG286     -0.0865
     66  CZ        19.7180   -0.7560  -31.5790 C.cat 286  ARG286      0.5346
     67  NH1       20.7920   -0.5290  -30.8350 N.pl3 286  ARG286      0.1354
     68  NH2       18.5910   -0.1610  -31.2700 N.pl3 286  ARG286      0.1354
     69  N         18.2760   -3.5520  -37.4440 N.am  287  PHE287     -0.1974
     70  CA        17.9900   -4.0340  -38.7950 C.3   287  PHE287      0.1639
     71  C         19.2280   -4.0550  -39.6610 C.2   287  PHE287      0.2290
     72  O         20.0230   -3.1110  -39.6550 O.2   287  PHE287     -0.2864
     73  CB        16.9120   -3.1390  -39.3850 C.3   287  PHE287      0.0560
     74  CG        15.7860   -2.9280  -38.4500 C.ar  287  PHE287     -0.0200
     75  CD1       14.9830   -4.0050  -38.0630 C.ar  287  PHE287     -0.0042
     76  CD2       15.5730   -1.6810  -37.8610 C.ar  287  PHE287     -0.0042
     77  CE1       13.9740   -3.8410  -37.0870 C.ar  287  PHE287     -0.0003
     78  CE2       14.5710   -1.5060  -36.8850 C.ar  287  PHE287     -0.0003
     79  CZ        13.7740   -2.5810  -36.4960 C.ar  287  PHE287     -0.0000
     80  N          6.2250   -4.5520  -28.3270 N.3   327  TYR327     -0.1227
     81  CA         6.1850   -5.3830  -29.5200 C.3   327  TYR327      0.1736
     82  C          7.5010   -6.1020  -29.7990 C.2   327  TYR327      0.2595
     83  O          7.5060   -7.3050  -30.0450 O.2   327  TYR327     -0.2718
     84  CB         5.7420   -4.5050  -30.7150 C.3   327  TYR327      0.0548
     85  CG         5.8880   -5.0720  -32.1160 C.ar  327  TYR327     -0.0200
     86  CD1        4.8310   -5.7610  -32.7470 C.ar  327  TYR327     -0.0009
     87  CD2        7.0500   -4.8230  -32.8550 C.ar  327  TYR327     -0.0009
     88  CE1        4.9300   -6.1820  -34.1140 C.ar  327  TYR327      0.0417
     89  CE2        7.1790   -5.2300  -34.2030 C.ar  327  TYR327      0.0417
     90  CZ         6.1200   -5.9060  -34.8390 C.ar  327  TYR327      0.1957
     91  OH         6.2760   -6.2620  -36.1880 O.3   327  TYR327     -0.2866
     92  N          8.6160   -5.3900  -29.7170 N.am  328  PHE328     -0.1976
     93  CA         9.9170   -5.9770  -30.0150 C.3   328  PHE328      0.1639
     94  C         10.4280   -7.0290  -29.0490 C.2   328  PHE328      0.2290
     95  O         11.2940   -7.8380  -29.4090 O.2   328  PHE328     -0.2864
     96  CB        10.9830   -4.8830  -30.1320 C.3   328  PHE328      0.0560
     97  CG        10.6630   -3.8430  -31.1530 C.ar  328  PHE328     -0.0200
     98  CD1        9.8500   -2.7510  -30.8270 C.ar  328  PHE328     -0.0042
     99  CD2       11.1050   -3.9910  -32.4650 C.ar  328  PHE328     -0.0042
    100  CE1        9.4820   -1.8230  -31.7990 C.ar  328  PHE328     -0.0003
    101  CE2       10.7440   -3.0750  -33.4480 C.ar  328  PHE328     -0.0003
    102  CZ         9.9350   -1.9930  -33.1210 C.ar  328  PHE328     -0.0000
    103  N         10.2510  -10.8080  -29.9640 N.3   331  TYR331     -0.1241
    104  CA        11.0750  -11.1990  -31.1000 C.3   331  TYR331      0.1605
    105  C         12.5310  -11.4500  -30.7400 C.2   331  TYR331      0.2264
    106  O         13.4110  -11.3080  -31.5900 O.2   331  TYR331     -0.2867
    107  CB        11.0410  -10.1360  -32.1900 C.3   331  TYR331      0.0534
    108  CG         9.7820  -10.1310  -33.0200 C.ar  331  TYR331     -0.0201
    109  CD1        8.7690   -9.2190  -32.7690 C.ar  331  TYR331     -0.0009
    110  CD2        9.6180  -11.0320  -34.0810 C.ar  331  TYR331     -0.0009
    111  CE1        7.6200   -9.1920  -33.5540 C.ar  331  TYR331      0.0417
    112  CE2        8.4810  -11.0190  -34.8670 C.ar  331  TYR331      0.0417
    113  CZ         7.4780  -10.0960  -34.6030 C.ar  331  TYR331      0.1957
    114  OH         6.3350  -10.0690  -35.3780 O.3   331  TYR331     -0.2866
@<TRIPOS>BOND
     1     1     2    1
     2     2     3    1
     3     2     5    1
     4    24    23    2
     5     3     4    2
     6    23    22    1
     7     5     6    1
     8    22    21    1
     9    22    25    1
    10    25    26    1
    11     6     8   ar
    12     6     7   ar
    13     8    10   ar
    14    27    26   ar
    15    27    29   ar
    16    26    28   ar
    17     7     9   ar
    18    33    34    1
    19    13    14    1
    20    10    11   ar
    21    41    39   ar
    22    41    42   ar
    23    29    31   ar
    24    39    38   ar
    25     9    11   ar
    26    16    15    2
    27    28    30   ar
    28    11    12    1
    29    14    15    1
    30    14    17    1
    31    34    35    1
    32    34    37    1
    33    42    44   ar
    34    42    40   ar
    35    44    46   ar
    36    38    37    1
    37    38    40   ar
    38    31    30   ar
    39    31    32    1
    40    35    36    2
    41    40    43   ar
    42    17    18    1
    43    71    72    2
    44    71    70    1
    45    46    45   ar
    46    73    70    1
    47    73    74    1
    48    43    45   ar
    49    70    69    1
    50    74    75   ar
    51    74    76   ar
    52    18    20   ar
    53    18    19   ar
    54    75    77   ar
    55    76    78   ar
    56    69    60   am
    57    77    79   ar
    58    78    79   ar
    59    61    60    2
    60    60    59    1
    61    91    90    1
    62   114   113    1
    63    59    58    1
    64    59    62    1
    65   112   113   ar
    66   112   110   ar
    67    90    89   ar
    68    90    88   ar
    69   113   111   ar
    70    63    62    1
    71    63    64    1
    72    58    49   am
    73    89    87   ar
    74    88    86   ar
    75   110   108   ar
    76    55    53   ar
    77    55    57   ar
    78   111   109   ar
    79    49    50    2
    80    49    48    1
    81   101   102   ar
    82   101    99   ar
    83    53    52   ar
    84   102   100   ar
    85    64    65    1
    86    57    56   ar
    87   108   109   ar
    88   108   107    1
    89    87    85   ar
    90    48    47    1
    91    48    51    1
    92    86    85   ar
    93    65    66    2
    94    99    97   ar
    95   107   104    1
    96    85    84    1
    97    52    51    1
    98    52    54   ar
    99    56    54   ar
   100   100    98   ar
   101   106   105    2
   102    66    68    1
   103    66    67    1
   104    97    98   ar
   105    97    96    1
   106   104   105    1
   107   104   103    1
   108    84    81    1
   109    96    93    1
   110    83    82    2
   111    93    92    1
   112    93    94    1
   113    82    92   am
   114    82    81    1
   115    81    80    1
   116    95    94    2
