@<TRIPOS>MOLECULE
tmp/1j07A02.pdb
 145 143 0 0 0
SMALL
GASTEIGER

@<TRIPOS>ATOM
      1  N         39.9050   23.1280   17.6730 N.3    72  TYR72      -0.1241
      2  CA        39.7170   24.2940   16.8280 C.3    72  TYR72       0.1605
      3  C         38.3960   24.9410   17.2470 C.2    72  TYR72       0.2264
      4  O         37.4290   24.2400   17.5370 O.2    72  TYR72      -0.2867
      5  CB        39.6630   23.8590   15.3530 C.3    72  TYR72       0.0534
      6  CG        39.1940   24.9390   14.4020 C.ar   72  TYR72      -0.0201
      7  CD1       37.8430   25.0680   14.0890 C.ar   72  TYR72      -0.0009
      8  CD2       40.0950   25.8600   13.8440 C.ar   72  TYR72      -0.0009
      9  CE1       37.3890   26.0700   13.2580 C.ar   72  TYR72       0.0417
     10  CE2       39.6550   26.8760   13.0080 C.ar   72  TYR72       0.0417
     11  CZ        38.2950   26.9770   12.7200 C.ar   72  TYR72       0.1957
     12  OH        37.8150   27.9930   11.9090 O.3    72  TYR72      -0.2866
     13  N         35.3570   27.5450   16.1210 N.3    74  ASP74      -0.1239
     14  CA        34.7560   28.1570   14.9380 C.3    74  ASP74       0.1674
     15  C         34.5710   29.6580   15.0790 C.2    74  ASP74       0.2266
     16  O         34.0500   30.1420   16.0830 O.2    74  ASP74      -0.2867
     17  CB        33.3980   27.5060   14.6180 C.3    74  ASP74       0.1410
     18  CG        32.8260   27.9560   13.2710 C.2    74  ASP74       0.3668
     19  OD1       33.3460   27.5320   12.2110 O.co2  74  ASP74      -0.2456
     20  OD2       31.8680   28.7550   13.2630 O.co2  74  ASP74      -0.2456
     21  N         36.8230   16.6520   15.2760 N.3   124  TYR124     -0.1241
     22  CA        37.7960   17.7230   15.5180 C.3   124  TYR124      0.1605
     23  C         37.2950   18.6660   16.5800 C.2   124  TYR124      0.2264
     24  O         38.0070   19.5810   16.9880 O.2   124  TYR124     -0.2867
     25  CB        38.1060   18.5350   14.2360 C.3   124  TYR124      0.0534
     26  CG        36.9810   19.4470   13.7490 C.ar  124  TYR124     -0.0201
     27  CD1       36.7770   20.7190   14.3040 C.ar  124  TYR124     -0.0009
     28  CD2       36.0660   18.9990   12.8010 C.ar  124  TYR124     -0.0009
     29  CE1       35.6700   21.5160   13.9300 C.ar  124  TYR124      0.0417
     30  CE2       34.9650   19.7740   12.4230 C.ar  124  TYR124      0.0417
     31  CZ        34.7690   21.0260   12.9960 C.ar  124  TYR124      0.1957
     32  OH        33.6210   21.7260   12.6750 O.3   124  TYR124     -0.2866
     33  N         50.2050    9.9530    5.7190 N.3   246  ARG246     -0.1245
     34  CA        50.4800   11.1220    4.9200 C.3   246  ARG246      0.1563
     35  C         50.1210   12.4280    5.6630 C.2   246  ARG246      0.2260
     36  O         50.9540   13.3520    5.7800 O.2   246  ARG246     -0.2867
     37  CB        49.6970   11.0260    3.6180 C.3   246  ARG246      0.0307
     38  CG        50.1120   12.0380    2.5900 C.3   246  ARG246      0.0489
     39  CD        48.9290   12.3700    1.6950 C.3   246  ARG246      0.2205
     40  NE        48.6410   13.7930    1.8130 N.pl3 246  ARG246     -0.0865
     41  CZ        47.4540   14.2910    2.1200 C.cat 246  ARG246      0.5346
     42  NH1       46.4240   13.4910    2.3380 N.pl3 246  ARG246      0.1354
     43  NH2       47.3080   15.5900    2.2360 N.pl3 246  ARG246      0.1354
     44  N         52.7020   15.2720    7.0460 N.3   250  LEU250     -0.1245
     45  CA        52.5700   16.6070    6.4680 C.3   250  LEU250      0.1561
     46  C         52.3820   17.6140    7.5880 C.2   250  LEU250      0.2260
     47  O         52.9930   18.6950    7.5750 O.2   250  LEU250     -0.2867
     48  CB        51.3760   16.7070    5.5070 C.3   250  LEU250      0.0270
     49  CG        51.1290   18.1440    4.9660 C.3   250  LEU250      0.0019
     50  CD1       52.4430   18.7530    4.3760 C.3   250  LEU250      0.0001
     51  CD2       50.0480   18.1220    3.8880 C.3   250  LEU250      0.0001
     52  N         46.6370   22.7500   16.3770 N.3   276  VAL276     -0.1231
     53  CA        45.3080   23.1500   15.9290 C.3   276  VAL276      0.1692
     54  C         45.4230   24.1470   14.7690 C.2   276  VAL276      0.2592
     55  O         44.6830   24.0270   13.7980 O.2   276  VAL276     -0.2718
     56  CB        44.4610   23.7990   17.0980 C.3   276  VAL276      0.0266
     57  CG1       43.1280   24.3470   16.5610 C.3   276  VAL276      0.0020
     58  CG2       44.1780   22.7490   18.2010 C.3   276  VAL276      0.0020
     59  N         46.3410   25.1120   14.8670 N.am  277  ASP277     -0.1974
     60  CA        46.5330   26.1040   13.8110 C.3   277  ASP277      0.1709
     61  C         46.8520   25.5240   12.4280 C.2   277  ASP277      0.2293
     62  O         46.5680   26.1720   11.4360 O.2   277  ASP277     -0.2864
     63  CB        47.6250   27.1110   14.1850 C.3   277  ASP277      0.1436
     64  CG        47.1760   28.1000   15.2730 C.2   277  ASP277      0.3671
     65  OD1       45.9690   28.1440   15.6070 O.co2 277  ASP277     -0.2456
     66  OD2       48.0430   28.8450   15.7950 O.co2 277  ASP277     -0.2456
     67  N         43.8280   22.0080    9.6050 N.3   280  TRP280     -0.1227
     68  CA        43.1240   22.0320    8.3320 C.3   280  TRP280      0.1737
     69  C         43.9720   22.0550    7.0660 C.2   280  TRP280      0.2595
     70  O         43.4530   21.8210    5.9770 O.2   280  TRP280     -0.2718
     71  CB        42.1330   23.2010    8.3100 C.3   280  TRP280      0.0564
     72  CG        41.0300   23.0120    9.3070 C.ar  280  TRP280      0.0003
     73  CD1       40.9650   23.5070   10.6000 C.ar  280  TRP280      0.0946
     74  CD2       39.8770   22.1930    9.1350 C.ar  280  TRP280      0.0152
     75  NE1       39.8410   23.0340   11.2280 N.ar  280  TRP280     -0.2442
     76  CE2       39.1530   22.2280   10.3570 C.ar  280  TRP280      0.0810
     77  CE3       39.3810   21.4280    8.0690 C.ar  280  TRP280      0.0012
     78  CZ2       37.9570   21.5230   10.5380 C.ar  280  TRP280      0.0191
     79  CZ3       38.1950   20.7270    8.2440 C.ar  280  TRP280      0.0001
     80  CH2       37.4930   20.7790    9.4750 C.ar  280  TRP280      0.0015
     81  N         45.2710   22.3000    7.1940 N.am  281  HIS281     -0.1975
     82  CA        46.1210   22.3760    6.0080 C.3   281  HIS281      0.1656
     83  C         46.5760   21.0410    5.4480 C.2   281  HIS281      0.2291
     84  O         47.3670   21.0210    4.5030 O.2   281  HIS281     -0.2864
     85  CB        47.3430   23.2400    6.2990 C.3   281  HIS281      0.0771
     86  CG        47.0050   24.6410    6.6970 C.ar  281  HIS281      0.0820
     87  ND1       47.7430   25.3530    7.6180 N.ar  281  HIS281     -0.2267
     88  CD2       46.0120   25.4680    6.2920 C.ar  281  HIS281      0.1154
     89  CE1       47.2180   26.5570    7.7640 C.ar  281  HIS281      0.1986
     90  NE2       46.1670   26.6530    6.9700 N.ar  281  HIS281     -0.2212
     91  N         44.3120   18.4890    4.4330 N.3   283  LEU283     -0.1231
     92  CA        43.3000   17.8250    3.5810 C.3   283  LEU283      0.1678
     93  C         43.7840   17.7620    2.1350 C.2   283  LEU283      0.2434
     94  O         44.3340   18.7220    1.6100 O.2   283  LEU283     -0.2733
     95  CB        41.9340   18.5390    3.6470 C.3   283  LEU283      0.0284
     96  CG        41.1520   18.3590    4.9620 C.3   283  LEU283      0.0019
     97  CD1       39.9570   19.3070    4.9840 C.3   283  LEU283      0.0001
     98  CD2       40.7240   16.8850    5.1350 C.3   283  LEU283      0.0001
     99  N         43.5930   16.6180    1.4780 N.am  284  PRO284     -0.2718
    100  CA        44.0180   16.4110    0.0940 C.3   284  PRO284      0.1535
    101  C         43.4790   17.3550   -0.9810 C.2   284  PRO284      0.2598
    102  O         44.2210   17.7170   -1.8920 O.2   284  PRO284     -0.2715
    103  CB        43.6650   14.9450   -0.1630 C.3   284  PRO284      0.0310
    104  CG        42.5430   14.6760    0.7820 C.3   284  PRO284      0.0237
    105  CD        42.9790   15.4020    2.0280 C.3   284  PRO284      0.0939
    106  N         42.2060   17.7460   -0.9020 N.am  285  GLN285     -0.1964
    107  CA        41.6350   18.6710   -1.8870 C.3   285  GLN285      0.1733
    108  C         40.7340   19.6790   -1.2040 C.2   285  GLN285      0.2616
    109  O         40.4360   19.5570   -0.0210 O.2   285  GLN285     -0.2715
    110  CB        40.7910   17.9370   -2.9380 C.3   285  GLN285      0.0408
    111  CG        41.3450   16.6200   -3.4270 C.3   285  GLN285      0.0908
    112  CD        40.9910   15.4900   -2.4890 C.2   285  GLN285      0.2608
    113  OE1       41.4160   14.3390   -2.6790 O.2   285  GLN285     -0.2717
    114  NE2       40.1980   15.8090   -1.4590 N.am  285  GLN285     -0.0878
    115  N         40.2980   20.6800   -1.9540 N.am  286  GLU286     -0.1963
    116  CA        39.3840   21.6800   -1.4200 C.3   286  GLU286      0.1733
    117  C         38.1130   20.8690   -1.1790 C.2   286  GLU286      0.2617
    118  O         37.7220   20.0570   -2.0240 O.2   286  GLU286     -0.2715
    119  CB        39.1140   22.7750   -2.4600 C.3   286  GLU286      0.0429
    120  CG        38.4970   24.0400   -1.8890 C.3   286  GLU286      0.1163
    121  CD        38.1110   25.0550   -2.9650 C.2   286  GLU286      0.3649
    122  OE1       38.7520   25.0570   -4.0530 O.co2 286  GLU286     -0.2457
    123  OE2       37.1720   25.8600   -2.7120 O.co2 286  GLU286     -0.2457
    124  N         37.4430   21.0810   -0.0560 N.am  287  SER287     -0.1950
    125  CA        36.2590   20.2670    0.1950 C.3   287  SER287      0.1924
    126  C         35.4410   20.7020    1.3850 C.2   287  SER287      0.2314
    127  O         35.8320   21.5870    2.1370 O.2   287  SER287     -0.2863
    128  CB        36.7080   18.8290    0.4560 C.3   287  SER287      0.2116
    129  OG        37.6070   18.8050    1.5660 O.3   287  SER287     -0.2180
    130  N         30.3650   26.6710    4.5290 N.3   335  TYR335     -0.1227
    131  CA        31.7610   26.5250    4.9450 C.3   335  TYR335      0.1736
    132  C         32.7210   26.2340    3.7850 C.2   335  TYR335      0.2596
    133  O         33.7430   25.5890    3.9850 O.2   335  TYR335     -0.2718
    134  CB        31.9130   25.4120    5.9980 C.3   335  TYR335      0.0548
    135  CG        31.4650   25.8220    7.3740 C.ar  335  TYR335     -0.0200
    136  CD1       30.1140   25.8030    7.7270 C.ar  335  TYR335     -0.0009
    137  CD2       32.3910   26.2970    8.3100 C.ar  335  TYR335     -0.0009
    138  CE1       29.6930   26.2600    8.9820 C.ar  335  TYR335      0.0417
    139  CE2       31.9800   26.7520    9.5630 C.ar  335  TYR335      0.0417
    140  CZ        30.6280   26.7300    9.8910 C.ar  335  TYR335      0.1957
    141  OH        30.2180   27.1770   11.1260 O.3   335  TYR335     -0.2866
    142  N         32.4080   26.6900    2.5790 N.am  336  GLY336     -0.1957
    143  CA        33.3330   26.4320    1.4940 C.3   336  GLY336      0.1869
    144  C         32.8090   26.3470    0.0740 C.2   336  GLY336      0.2309
    145  O         33.6110   26.2410   -0.8560 O.2   336  GLY336     -0.2863
@<TRIPOS>BOND
     1   122   121   ar
     2   111   110    1
     3   111   112    1
     4   121   123   ar
     5   121   120    1
     6   110   107    1
     7   113   112    2
     8   112   114   am
     9   119   120    1
    10   119   116    1
    11   118   117    2
    12   115   116    1
    13   115   108   am
    14   102   101    2
    15   107   108    1
    16   107   106    1
    17   116   117    1
    18   108   109    2
    19   117   124   am
    20   101   106   am
    21   101   100    1
    22   145   144    2
    23   103   100    1
    24   103   104    1
    25   124   125    1
    26   144   143    1
    27   100    99    1
    28   125   128    1
    29   125   126    1
    30   128   129    1
    31   104   105    1
    32   126   127    2
    33    99   105    1
    34    99    93   am
    35   143   142    1
    36    94    93    2
    37    39    40    1
    38    39    38    1
    39    40    41    2
    40    41    43    1
    41    41    42    1
    42    93    92    1
    43   142   132   am
    44    38    37    1
    45    92    95    1
    46    92    91    1
    47    37    34    1
    48    95    96    1
    49   132   133    2
    50   132   131    1
    51    51    49    1
    52    50    49    1
    53    84    83    2
    54   130   131    1
    55    34    35    1
    56    34    33    1
    57   131   134    1
    58    96    97    1
    59    96    98    1
    60    49    48    1
    61    83    82    1
    62    48    45    1
    63    35    36    2
    64    70    69    2
    65   134   135    1
    66    82    85    1
    67    82    81    1
    68    88    86   ar
    69    88    90   ar
    70    85    86    1
    71    45    44    1
    72    45    46    1
    73    86    87   ar
    74    90    89   ar
    75    69    81   am
    76    69    68    1
    77   135   136   ar
    78   135   137   ar
    79    47    46    2
    80    87    89   ar
    81   136   138   ar
    82    77    79   ar
    83    77    74   ar
    84    79    80   ar
    85   137   139   ar
    86    71    68    1
    87    71    72    1
    88    68    67    1
    89   138   140   ar
    90    74    72   ar
    91    74    76   ar
    92    72    73   ar
    93    80    78   ar
    94   139   140   ar
    95   140   141    1
    96    76    78   ar
    97    76    75   ar
    98    73    75   ar
    99    62    61    2
   100    12    11    1
   101    19    18   ar
   102    30    28   ar
   103    30    31   ar
   104    61    60    1
   105    32    31    1
   106    11    10   ar
   107    11     9   ar
   108    28    26   ar
   109    31    29   ar
   110    10     8   ar
   111     9     7   ar
   112    20    18   ar
   113    18    17    1
   114    26    25    1
   115    26    27   ar
   116    55    54    2
   117    60    63    1
   118    60    59    1
   119     8     6   ar
   120    29    27   ar
   121     7     6   ar
   122    63    64    1
   123    25    22    1
   124     6     5    1
   125    17    14    1
   126    54    59   am
   127    54    53    1
   128    14    15    1
   129    14    13    1
   130    15    16    2
   131    64    65   ar
   132    64    66   ar
   133    21    22    1
   134     5     2    1
   135    22    23    1
   136    53    52    1
   137    53    56    1
   138    57    56    1
   139    23    24    2
   140     2     3    1
   141     2     1    1
   142    56    58    1
   143     3     4    2
