@<TRIPOS>MOLECULE
tmp/1j0aB00.pdb
 140 134 0 0 0
SMALL
GASTEIGER

@<TRIPOS>ATOM
      1  N         43.1840   49.0800   43.3800 N.3    53  ASN53      -0.1225
      2  CA        43.5260   49.3140   44.7720 C.3    53  ASN53       0.1785
      3  C         43.6630   50.7900   45.0900 C.2    53  ASN53       0.2597
      4  O         43.5230   51.2030   46.2390 O.2    53  ASN53      -0.2718
      5  CB        44.8350   48.5800   45.1210 C.3    53  ASN53       0.1169
      6  CG        46.0310   49.0780   44.3080 C.2    53  ASN53       0.2627
      7  OD1       45.9620   49.2210   43.0760 O.2    53  ASN53      -0.2716
      8  ND2       47.1440   49.3280   44.9970 N.am   53  ASN53      -0.0877
      9  N         43.9170   51.5920   44.0710 N.am   54  LYS54      -0.1980
     10  CA        44.1050   53.0070   44.3190 C.3    54  LYS54       0.1596
     11  C         42.8280   53.6160   44.8740 C.2    54  LYS54       0.2287
     12  O         42.8830   54.5380   45.6710 O.2    54  LYS54      -0.2864
     13  CB        44.5550   53.7250   43.0400 C.3    54  LYS54       0.0298
     14  CG        45.8820   53.2080   42.4290 C.3    54  LYS54       0.0038
     15  CD        47.0340   53.2710   43.4530 C.3    54  LYS54       0.0206
     16  CE        48.4200   52.9450   42.8590 C.3    54  LYS54       0.1093
     17  NZ        48.5340   51.5570   42.4230 N.3    54  LYS54      -0.1314
     18  N         42.7960   53.7910   48.5760 N.3    57  LYS57      -0.1245
     19  CA        43.6680   54.8260   49.1020 C.3    57  LYS57       0.1561
     20  C         42.9850   56.1890   48.9350 C.2    57  LYS57       0.2260
     21  O         43.0610   57.0420   49.8210 O.2    57  LYS57      -0.2867
     22  CB        44.9910   54.8330   48.3380 C.3    57  LYS57       0.0271
     23  CG        45.7540   53.5390   48.3520 C.3    57  LYS57       0.0035
     24  CD        47.0830   53.7100   47.6460 C.3    57  LYS57       0.0206
     25  CE        48.0030   52.5290   47.8960 C.3    57  LYS57       0.1093
     26  NZ        49.4430   52.9420   47.9030 N.3    57  LYS57      -0.1314
     27  N         47.7970   54.1610   36.5200 N.3    82  ASN82      -0.1225
     28  CA        46.4270   53.8610   36.8960 C.3    82  ASN82       0.1785
     29  C         46.0310   54.9020   37.9300 C.2    82  ASN82       0.2597
     30  O         44.9390   55.4720   37.8990 O.2    82  ASN82      -0.2718
     31  CB        46.3200   52.4810   37.5460 C.3    82  ASN82       0.1169
     32  CG        46.5900   51.3540   36.5860 C.2    82  ASN82       0.2627
     33  OD1       46.0900   51.3320   35.4680 O.2    82  ASN82      -0.2716
     34  ND2       47.3680   50.3910   37.0320 N.am   82  ASN82      -0.0877
     35  N         46.9440   55.1370   38.8580 N.am   83  HIS83      -0.1975
     36  CA        46.7270   56.0870   39.9270 C.3    83  HIS83       0.1656
     37  C         46.4190   57.5120   39.4400 C.2    83  HIS83       0.2291
     38  O         45.6740   58.2420   40.0830 O.2    83  HIS83      -0.2864
     39  CB        47.9540   56.0850   40.8330 C.3    83  HIS83       0.0771
     40  CG        47.9950   57.2210   41.8020 C.ar   83  HIS83       0.0820
     41  ND1       47.2400   57.2460   42.9550 N.ar   83  HIS83      -0.2267
     42  CD2       48.7000   58.3770   41.7870 C.ar   83  HIS83       0.1154
     43  CE1       47.4820   58.3680   43.6100 C.ar   83  HIS83       0.1986
     44  NE2       48.3650   59.0720   42.9220 N.ar   83  HIS83      -0.2212
     45  N         51.5810   56.8350   43.2170 N.3   157  GLY157     -0.1225
     46  CA        50.7710   55.7060   43.6510 C.3   157  GLY157      0.1811
     47  C         49.9680   55.8240   44.9400 C.2   157  GLY157      0.2280
     48  O         49.4810   54.8110   45.4440 O.2   157  GLY157     -0.2866
     49  N         50.1990   40.3200   47.2060 N.3   187  VAL187     -0.1231
     50  CA        49.9020   41.4860   46.3810 C.3   187  VAL187      0.1692
     51  C         51.1330   42.0380   45.6760 C.2   187  VAL187      0.2592
     52  O         52.2450   41.9850   46.2000 O.2   187  VAL187     -0.2718
     53  CB        49.2910   42.6420   47.2300 C.3   187  VAL187      0.0266
     54  CG1       50.3640   43.2980   48.0930 C.3   187  VAL187      0.0020
     55  CG2       48.6340   43.6670   46.3220 C.3   187  VAL187      0.0020
     56  N         50.9220   42.5710   44.4800 N.am  188  ALA188     -0.1966
     57  CA        51.9970   43.1930   43.7340 C.3   188  ALA188      0.1728
     58  C         52.4640   44.3800   44.5760 C.2   188  ALA188      0.2616
     59  O         51.7490   44.8430   45.4620 O.2   188  ALA188     -0.2715
     60  CB        51.4830   43.6730   42.3800 C.3   188  ALA188      0.0334
     61  N         53.6730   44.8580   44.3210 N.am  189  ALA189     -0.1963
     62  CA        54.2010   45.9990   45.0610 C.3   189  ALA189      0.1728
     63  C         54.8100   47.0330   44.1260 C.2   189  ALA189      0.2617
     64  O         55.6550   46.7120   43.2890 O.2   189  ALA189     -0.2715
     65  CB        55.2350   45.5520   46.0770 C.3   189  ALA189      0.0334
     66  N         54.3420   48.2680   44.2570 N.am  190  GLY190     -0.1940
     67  CA        54.8520   49.3590   43.4590 C.3   190  GLY190      0.2014
     68  C         55.4760   50.2640   44.4970 C.2   190  GLY190      0.2640
     69  O         56.6390   50.1090   44.8420 O.2   190  GLY190     -0.2714
     70  N         54.6970   51.1950   45.0270 N.am  191  SER191     -0.1935
     71  CA        55.2060   52.0920   46.0400 C.3   191  SER191      0.2055
     72  C         55.2690   51.3410   47.3650 C.2   191  SER191      0.2644
     73  O         55.9200   51.7870   48.3080 O.2   191  SER191     -0.2714
     74  CB        54.2700   53.2820   46.2000 C.3   191  SER191      0.2130
     75  OG        53.1110   52.9110   46.9370 O.3   191  SER191     -0.2179
     76  N         54.5650   50.2120   47.4440 N.am  192  GLY192     -0.1939
     77  CA        54.5540   49.4320   48.6720 C.3   192  GLY192      0.2014
     78  C         53.4620   49.8380   49.6460 C.2   192  GLY192      0.2639
     79  O         53.3040   49.2250   50.7130 O.2   192  GLY192     -0.2714
     80  N         52.7090   50.8740   49.2860 N.am  193  GLY193     -0.1939
     81  CA        51.6290   51.3490   50.1390 C.3   193  GLY193      0.2014
     82  C         50.5530   50.3160   50.4690 C.2   193  GLY193      0.2640
     83  O         50.1650   50.1700   51.6450 O.2   193  GLY193     -0.2714
     84  N         50.0730   49.6040   49.4490 N.am  194  THR194     -0.1936
     85  CA        49.0540   48.5810   49.6690 C.3   194  THR194      0.2028
     86  C         49.6070   47.5320   50.6320 C.2   194  THR194      0.2642
     87  O         48.9690   47.1920   51.6370 O.2   194  THR194     -0.2714
     88  CB        48.6500   47.8350   48.3590 C.3   194  THR194      0.1808
     89  OG1       48.1610   48.7610   47.3850 O.3   194  THR194     -0.2208
     90  CG2       47.5540   46.8370   48.6420 C.3   194  THR194      0.0379
     91  N         50.7960   47.0130   50.2990 N.am  195  LEU195     -0.1977
     92  CA        51.4570   45.9970   51.1150 C.3   195  LEU195      0.1596
     93  C         51.5720   46.4640   52.5770 C.2   195  LEU195      0.2287
     94  O         51.2150   45.7260   53.5200 O.2   195  LEU195     -0.2864
     95  CB        52.8280   45.6880   50.5130 C.3   195  LEU195      0.0297
     96  CG        53.6680   44.4700   50.9430 C.3   195  LEU195      0.0022
     97  CD1       54.8960   44.9790   51.7000 C.3   195  LEU195      0.0001
     98  CD2       52.8560   43.4810   51.7950 C.3   195  LEU195      0.0001
     99  N         47.1420   42.1010   34.4130 N.3   279  ASP279     -0.1239
    100  CA        47.8540   43.0770   33.5910 C.3   279  ASP279      0.1674
    101  C         49.3720   42.8480   33.5880 C.2   279  ASP279      0.2266
    102  O         49.9590   42.5250   34.6210 O.2   279  ASP279     -0.2867
    103  CB        47.5530   44.4880   34.0850 C.3   279  ASP279      0.1410
    104  CG        48.3840   44.8590   35.2810 C.2   279  ASP279      0.3668
    105  OD1       47.9190   44.6690   36.4300 O.co2 279  ASP279     -0.2456
    106  OD2       49.5240   45.3270   35.0580 O.co2 279  ASP279     -0.2456
    107  N         51.6690   44.9380   36.6090 N.3   282  TYR282     -0.1227
    108  CA        51.5500   44.6520   38.0390 C.3   282  TYR282      0.1736
    109  C         51.0170   43.2630   38.4030 C.2   282  TYR282      0.2596
    110  O         51.7730   42.3980   38.8580 O.2   282  TYR282     -0.2718
    111  CB        50.6520   45.6640   38.7340 C.3   282  TYR282      0.0548
    112  CG        51.2280   47.0340   38.9040 C.ar  282  TYR282     -0.0200
    113  CD1       50.8430   48.0810   38.0630 C.ar  282  TYR282     -0.0009
    114  CD2       52.1070   47.3090   39.9460 C.ar  282  TYR282     -0.0009
    115  CE1       51.3110   49.3730   38.2620 C.ar  282  TYR282      0.0417
    116  CE2       52.5890   48.6030   40.1580 C.ar  282  TYR282      0.0417
    117  CZ        52.1820   49.6310   39.3150 C.ar  282  TYR282      0.1957
    118  OH        52.6190   50.9160   39.5520 O.3   282  TYR282     -0.2866
    119  N         49.7090   43.0640   38.2110 N.am  283  THR283     -0.1953
    120  CA        49.0720   41.8060   38.5780 C.3   283  THR283      0.1897
    121  C         49.6030   40.5530   37.9140 C.2   283  THR283      0.2313
    122  O         49.6570   39.5190   38.5550 O.2   283  THR283     -0.2863
    123  CB        47.5210   41.8680   38.4170 C.3   283  THR283      0.1794
    124  OG1       47.1730   42.2310   37.0750 O.3   283  THR283     -0.2208
    125  CG2       46.9350   42.8590   39.4220 C.3   283  THR283      0.0378
    126  N         44.6140   43.7250   42.1790 N.3   308  THR308     -0.1203
    127  CA        44.6910   45.1700   42.3320 C.3   308  THR308      0.1994
    128  C         44.2700   45.9980   41.1280 C.2   308  THR308      0.2618
    129  O         44.3440   47.2220   41.1830 O.2   308  THR308     -0.2717
    130  CB        46.0960   45.5740   42.7140 C.3   308  THR308      0.1784
    131  OG1       47.0180   44.8160   41.9250 O.3   308  THR308     -0.2211
    132  CG2       46.3260   45.3300   44.1670 C.3   308  THR308      0.0376
    133  N         43.8560   45.3260   40.0520 N.am  309  GLY309     -0.1942
    134  CA        43.4050   46.0180   38.8590 C.3   309  GLY309      0.2014
    135  C         44.2920   45.9140   37.6340 C.2   309  GLY309      0.2639
    136  O         44.6700   44.8090   37.2120 O.2   309  GLY309     -0.2714
    137  N         44.5660   47.0820   37.0420 N.am  310  GLY310     -0.1954
    138  CA        45.4230   47.2040   35.8820 C.3   310  GLY310      0.1869
    139  C         44.8660   46.8040   34.5400 C.2   310  GLY310      0.2309
    140  O         45.6320   46.6180   33.5990 O.2   310  GLY310     -0.2863
@<TRIPOS>BOND
     1   101   100    1
     2   101   102    2
     3   100   103    1
     4   100    99    1
     5   140   139    2
     6   103   104    1
     7   139   138    1
     8   106   104   ar
     9   104   105   ar
    10    33    32    2
    11   138   137    1
    12    27    28    1
    13    32    34   am
    14    32    31    1
    15   107   108    1
    16    28    31    1
    17    28    29    1
    18   137   135   am
    19   124   123    1
    20   136   135    2
    21   135   134    1
    22    30    29    2
    23   121   122    2
    24   121   120    1
    25    29    35   am
    26   108   109    1
    27   108   111    1
    28   113   115   ar
    29   113   112   ar
    30   119   109   am
    31   119   120    1
    32   115   117   ar
    33   109   110    2
    34   123   120    1
    35   123   125    1
    36   111   112    1
    37    35    36    1
    38   134   133    1
    39   112   114   ar
    40   117   118    1
    41   117   116   ar
    42    37    36    1
    43    37    38    2
    44    36    39    1
    45   114   116   ar
    46   133   128   am
    47    39    40    1
    48   128   129    2
    49   128   127    1
    50    42    40   ar
    51    42    44   ar
    52    40    41   ar
    53   131   130    1
    54   126   127    1
    55   127   130    1
    56    60    57    1
    57    17    16    1
    58    14    13    1
    59    14    15    1
    60   130   132    1
    61    16    15    1
    62    44    43   ar
    63    41    43   ar
    64    13    10    1
    65     7     6    2
    66    45    46    1
    67    64    63    2
    68     1     2    1
    69    67    66    1
    70    67    68    1
    71    46    47    1
    72    57    56    1
    73    57    58    1
    74     9    10    1
    75     9     3   am
    76    63    66   am
    77    63    62    1
    78     6     8   am
    79     6     5    1
    80    10    11    1
    81    61    58   am
    82    61    62    1
    83    56    51   am
    84    68    69    2
    85    68    70   am
    86    58    59    2
    87     2     3    1
    88     2     5    1
    89    11    12    2
    90    47    48    2
    91    70    71    1
    92    62    65    1
    93     3     4    2
    94    51    52    2
    95    51    50    1
    96    71    74    1
    97    71    72    1
    98    74    75    1
    99    55    53    1
   100    50    49    1
   101    50    53    1
   102    53    54    1
   103    72    76   am
   104    72    73    2
   105    89    88    1
   106    76    77    1
   107    24    25    1
   108    24    23    1
   109    25    26    1
   110    22    23    1
   111    22    19    1
   112    88    90    1
   113    88    85    1
   114    18    19    1
   115    77    78    1
   116    20    19    1
   117    20    21    2
   118    80    78   am
   119    80    81    1
   120    84    85    1
   121    84    82   am
   122    78    79    2
   123    85    86    1
   124    81    82    1
   125    91    86   am
   126    91    92    1
   127    82    83    2
   128    95    96    1
   129    95    92    1
   130    86    87    2
   131    96    97    1
   132    96    98    1
   133    92    93    1
   134    93    94    2
