@<TRIPOS>MOLECULE
tmp/1j0bL00.pdb
 173 167 0 0 0
SMALL
GASTEIGER

@<TRIPOS>ATOM
      1  N         76.8870   98.1520  137.5480 N.3    53  ASN53      -0.1225
      2  CA        75.8590   98.4390  138.5310 C.3    53  ASN53       0.1785
      3  C         76.4560   98.9780  139.8160 C.2    53  ASN53       0.2597
      4  O         75.7310   99.3420  140.7440 O.2    53  ASN53      -0.2718
      5  CB        75.0410   97.1740  138.8160 C.3    53  ASN53       0.1169
      6  CG        75.8950   96.0120  139.2550 C.2    53  ASN53       0.2627
      7  OD1       76.9770   95.8000  138.7230 O.2    53  ASN53      -0.2716
      8  ND2       75.4030   95.2370  140.2180 N.am   53  ASN53      -0.0877
      9  N         77.7810   99.0550  139.8570 N.am   54  LYS54      -0.1980
     10  CA        78.4570   99.5250  141.0520 C.3    54  LYS54       0.1596
     11  C         78.7430  101.0010  141.0620 C.2    54  LYS54       0.2287
     12  O         79.2470  101.5340  142.0550 O.2    54  LYS54      -0.2864
     13  CB        79.7430   98.7290  141.2830 C.3    54  LYS54       0.0298
     14  CG        79.4630   97.2510  141.5090 C.3    54  LYS54       0.0038
     15  CD        78.4350   97.0410  142.6140 C.3    54  LYS54       0.0206
     16  CE        78.0440   95.5830  142.7350 C.3    54  LYS54       0.1093
     17  NZ        77.2410   95.3600  143.9590 N.3    54  LYS54      -0.1314
     18  N         75.4050  102.2890  143.1450 N.3    57  LYS57      -0.1245
     19  CA        75.4840  102.1670  144.6100 C.3    57  LYS57       0.1561
     20  C         76.5490  103.0950  145.1870 C.2    57  LYS57       0.2260
     21  O         76.4340  103.5890  146.3150 O.2    57  LYS57      -0.2867
     22  CB        75.8380  100.7390  145.0310 C.3    57  LYS57       0.0271
     23  CG        74.9940   99.6420  144.4150 C.3    57  LYS57       0.0035
     24  CD        75.2580   98.3130  145.1120 C.3    57  LYS57       0.0206
     25  CE        74.6730   97.1450  144.3340 C.3    57  LYS57       0.1093
     26  NZ        75.2790   97.0400  142.9730 N.3    57  LYS57      -0.1314
     27  N         85.9570   95.3120  150.4800 N.3    76  VAL76      -0.1231
     28  CA        86.3650   93.9210  150.2120 C.3    76  VAL76       0.1692
     29  C         85.6610   93.1620  149.0720 C.2    76  VAL76       0.2593
     30  O         84.6800   93.6310  148.4820 O.2    76  VAL76      -0.2718
     31  CB        86.2070   93.0440  151.4770 C.3    76  VAL76       0.0266
     32  CG1       86.5790   93.8430  152.7110 C.3    76  VAL76       0.0020
     33  CG2       84.7840   92.5290  151.5840 C.3    76  VAL76       0.0020
     34  N         86.1810   91.9650  148.7960 N.am   77  GLY77      -0.1942
     35  CA        85.6320   91.1050  147.7620 C.3    77  GLY77       0.2014
     36  C         86.6360   90.0700  147.2770 C.2    77  GLY77       0.2638
     37  O         87.5680   89.7020  148.0030 O.2    77  GLY77      -0.2714
     38  N         86.4370   89.5930  146.0490 N.am   78  ALA78      -0.1977
     39  CA        87.3310   88.6170  145.4400 C.3    78  ALA78       0.1597
     40  C         88.4650   89.3990  144.8080 C.2    78  ALA78       0.2287
     41  O         88.6000   90.5870  145.0590 O.2    78  ALA78      -0.2864
     42  CB        86.5970   87.8330  144.3910 C.3    78  ALA78       0.0319
     43  N         86.9430   90.8980  141.5320 N.3    81  SER81      -0.1202
     44  CA        85.7680   91.6690  141.8550 C.3    81  SER81       0.2020
     45  C         85.8420   93.0390  141.2100 C.2    81  SER81       0.2619
     46  O         86.7060   93.8520  141.5540 O.2    81  SER81      -0.2717
     47  CB        85.6260   91.8090  143.3750 C.3    81  SER81       0.2103
     48  OG        84.4780   92.5810  143.7060 O.3    81  SER81      -0.2182
     49  N         84.9350   93.2660  140.2620 N.am   82  ASN82      -0.1960
     50  CA        84.8210   94.5370  139.5530 C.3    82  ASN82       0.1819
     51  C         84.6040   95.6050  140.6200 C.2    82  ASN82       0.2621
     52  O         85.3490   96.5760  140.7100 O.2    82  ASN82      -0.2715
     53  CB        83.5970   94.5080  138.6290 C.3    82  ASN82       0.1195
     54  CG        83.6770   93.4170  137.5790 C.2    82  ASN82       0.2630
     55  OD1       82.7480   92.6310  137.4090 O.2    82  ASN82      -0.2716
     56  ND2       84.7840   93.3760  136.8580 N.am   82  ASN82      -0.0877
     57  N         83.5670   95.3840  141.4270 N.am   83  HIS83      -0.1973
     58  CA        83.1750   96.2680  142.5190 C.3    83  HIS83       0.1656
     59  C         84.3630   96.9670  143.1770 C.2    83  HIS83       0.2291
     60  O         84.5280   98.1800  143.0380 O.2    83  HIS83      -0.2864
     61  CB        82.3850   95.4670  143.5680 C.3    83  HIS83       0.0771
     62  CG        82.0600   96.2350  144.8150 C.ar   83  HIS83       0.0820
     63  ND1       83.0210   96.8540  145.5880 N.ar   83  HIS83      -0.2267
     64  CD2       80.8810   96.4460  145.4460 C.ar   83  HIS83       0.1154
     65  CE1       82.4470   97.4100  146.6410 C.ar   83  HIS83       0.1986
     66  NE2       81.1490   97.1740  146.5790 N.ar   83  HIS83      -0.2212
     67  N         84.0810   85.8420  151.7860 N.3   131  PHE131     -0.1241
     68  CA        84.3900   87.2580  151.8940 C.3   131  PHE131      0.1605
     69  C         84.4940   87.8880  153.2780 C.2   131  PHE131      0.2264
     70  O         84.3830   89.1110  153.4350 O.2   131  PHE131     -0.2867
     71  CB        83.4210   88.0190  150.9980 C.3   131  PHE131      0.0534
     72  CG        83.5380   87.6170  149.5600 C.ar  131  PHE131     -0.0203
     73  CD1       82.5500   86.8470  148.9500 C.ar  131  PHE131     -0.0042
     74  CD2       84.7020   87.9030  148.8510 C.ar  131  PHE131     -0.0042
     75  CE1       82.7250   86.3570  147.6550 C.ar  131  PHE131     -0.0003
     76  CE2       84.8940   87.4210  147.5570 C.ar  131  PHE131     -0.0003
     77  CZ        83.9080   86.6450  146.9550 C.ar  131  PHE131     -0.0000
     78  N         80.2610   93.7200  151.4450 N.3   156  PRO156     -0.2102
     79  CA        80.7200   93.1060  150.1980 C.3   156  PRO156      0.1504
     80  C         79.7390   93.4670  149.0880 C.2   156  PRO156      0.2576
     81  O         78.5320   93.2510  149.2380 O.2   156  PRO156     -0.2718
     82  CB        80.7030   91.6070  150.5230 C.3   156  PRO156      0.0282
     83  CG        80.7530   91.5560  152.0350 C.3   156  PRO156      0.0208
     84  CD        79.8310   92.6910  152.4020 C.3   156  PRO156      0.0893
     85  N         80.2390   94.0210  147.9850 N.am  157  GLY157     -0.1957
     86  CA        79.3440   94.3780  146.8950 C.3   157  GLY157      0.1869
     87  C         78.5100   95.6130  147.2170 C.2   157  GLY157      0.2309
     88  O         77.5940   96.0000  146.4660 O.2   157  GLY157     -0.2863
     89  N         71.3570   89.8980  137.7230 N.3   188  ALA188     -0.1231
     90  CA        72.2740   88.9380  138.3190 C.3   188  ALA188      0.1694
     91  C         72.3780   89.2260  139.8150 C.2   188  ALA188      0.2592
     92  O         72.5940   90.3750  140.2080 O.2   188  ALA188     -0.2718
     93  CB        73.6320   89.0680  137.6700 C.3   188  ALA188      0.0304
     94  N         72.2400   88.1960  140.6480 N.am  189  ALA189     -0.1966
     95  CA        72.3090   88.3840  142.0930 C.3   189  ALA189      0.1728
     96  C         73.5890   87.8870  142.7800 C.2   189  ALA189      0.2617
     97  O         73.7780   86.6910  142.9920 O.2   189  ALA189     -0.2715
     98  CB        71.0880   87.7460  142.7630 C.3   189  ALA189      0.0334
     99  N         74.4650   88.8260  143.1240 N.am  190  GLY190     -0.1940
    100  CA        75.6870   88.4910  143.8270 C.3   190  GLY190      0.2014
    101  C         75.4070   88.8170  145.2840 C.2   190  GLY190      0.2640
    102  O         74.6150   88.1270  145.9390 O.2   190  GLY190     -0.2714
    103  N         76.0440   89.8640  145.7970 N.am  191  SER191     -0.1935
    104  CA        75.8090   90.2770  147.1680 C.3   191  SER191      0.2055
    105  C         74.2980   90.3570  147.3810 C.2   191  SER191      0.2643
    106  O         73.7980   90.0610  148.4670 O.2   191  SER191     -0.2714
    107  CB        76.4580   91.6390  147.4320 C.3   191  SER191      0.2130
    108  OG        76.2300   92.5610  146.3730 O.3   191  SER191     -0.2179
    109  N         73.5810   90.7390  146.3250 N.am  192  GLY192     -0.1954
    110  CA        72.1350   90.8550  146.3870 C.3   192  GLY192      0.1869
    111  C         71.6610   92.2950  146.3210 C.2   192  GLY192      0.2309
    112  O         70.6080   92.5890  145.7670 O.2   192  GLY192     -0.2863
    113  N         71.8240   94.8240  144.4780 N.3   194  THR194     -0.1203
    114  CA        71.2260   95.3260  143.2490 C.3   194  THR194      0.1994
    115  C         69.8540   94.7260  143.0360 C.2   194  THR194      0.2617
    116  O         69.0650   95.2140  142.2320 O.2   194  THR194     -0.2717
    117  CB        72.0890   94.9900  142.0300 C.3   194  THR194      0.1784
    118  OG1       73.3480   95.6590  142.1480 O.3   194  THR194     -0.2211
    119  CG2       71.4020   95.4260  140.7380 C.3   194  THR194      0.0376
    120  N         69.5590   93.6590  143.7640 N.am  195  LEU195     -0.1979
    121  CA        68.2630   93.0080  143.6250 C.3   195  LEU195      0.1596
    122  C         67.2980   93.4480  144.7290 C.2   195  LEU195      0.2287
    123  O         66.0850   93.4040  144.5590 O.2   195  LEU195     -0.2864
    124  CB        68.4550   91.4920  143.6200 C.3   195  LEU195      0.0297
    125  CG        67.2670   90.5610  143.3500 C.3   195  LEU195      0.0022
    126  CD1       66.6370   90.1500  144.6900 C.3   195  LEU195      0.0001
    127  CD2       66.2670   91.2210  142.3680 C.3   195  LEU195      0.0001
    128  N         81.0730   79.9180  142.4000 N.3   256  TYR256     -0.1241
    129  CA        81.3750   81.2940  142.0370 C.3   256  TYR256      0.1605
    130  C         82.6750   81.3010  141.2360 C.2   256  TYR256      0.2264
    131  O         83.7320   80.8910  141.7360 O.2   256  TYR256     -0.2867
    132  CB        81.5200   82.1100  143.3270 C.3   256  TYR256      0.0534
    133  CG        82.1200   83.5000  143.2090 C.ar  256  TYR256     -0.0201
    134  CD1       81.6800   84.4070  142.2350 C.ar  256  TYR256     -0.0009
    135  CD2       83.0640   83.9410  144.1380 C.ar  256  TYR256     -0.0009
    136  CE1       82.1620   85.7210  142.2010 C.ar  256  TYR256      0.0417
    137  CE2       83.5450   85.2500  144.1090 C.ar  256  TYR256      0.0417
    138  CZ        83.0880   86.1320  143.1450 C.ar  256  TYR256      0.1957
    139  OH        83.5290   87.4360  143.1550 O.3   256  TYR256     -0.2866
    140  N         78.8850   86.7910  135.4020 N.3   282  TYR282     -0.1227
    141  CA        77.7170   87.5290  135.8920 C.3   282  TYR282      0.1736
    142  C         76.5380   87.6400  134.9330 C.2   282  TYR282      0.2596
    143  O         75.5260   86.9560  135.1010 O.2   282  TYR282     -0.2718
    144  CB        78.1570   88.9330  136.3230 C.3   282  TYR282      0.0548
    145  CG        78.9930   88.9430  137.5830 C.ar  282  TYR282     -0.0200
    146  CD1       80.2320   89.5870  137.6210 C.ar  282  TYR282     -0.0009
    147  CD2       78.5250   88.3280  138.7520 C.ar  282  TYR282     -0.0009
    148  CE1       80.9790   89.6200  138.8020 C.ar  282  TYR282      0.0417
    149  CE2       79.2640   88.3540  139.9320 C.ar  282  TYR282      0.0417
    150  CZ        80.4830   89.0000  139.9540 C.ar  282  TYR282      0.1957
    151  OH        81.2060   89.0320  141.1230 O.3   282  TYR282     -0.2866
    152  N         76.6620   88.5230  133.9450 N.am  283  THR283     -0.1953
    153  CA        75.6110   88.7190  132.9480 C.3   283  THR283      0.1897
    154  C         75.4880   87.4690  132.0500 C.2   283  THR283      0.2313
    155  O         74.4360   87.2060  131.4460 O.2   283  THR283     -0.2863
    156  CB        75.9180   89.9730  132.0880 C.3   283  THR283      0.1794
    157  OG1       77.0790   89.7410  131.2800 O.3   283  THR283     -0.2208
    158  CG2       76.2080   91.1610  132.9890 C.3   283  THR283      0.0378
    159  N         74.4140   94.3110  134.1670 N.3   308  THR308     -0.1203
    160  CA        75.1480   94.7220  135.3500 C.3   308  THR308      0.1994
    161  C         76.6240   94.9890  135.0650 C.2   308  THR308      0.2618
    162  O         77.4500   95.0160  135.9740 O.2   308  THR308     -0.2717
    163  CB        75.0220   93.6600  136.4300 C.3   308  THR308      0.1784
    164  OG1       74.4520   92.4710  135.8610 O.3   308  THR308     -0.2211
    165  CG2       74.1370   94.1640  137.5590 C.3   308  THR308      0.0376
    166  N         76.9460   95.1900  133.7920 N.am  309  GLY309     -0.1942
    167  CA        78.3220   95.4660  133.3990 C.3   309  GLY309      0.2014
    168  C         79.3670   94.3680  133.6060 C.2   309  GLY309      0.2639
    169  O         79.1740   93.2200  133.1920 O.2   309  GLY309     -0.2714
    170  N         80.4870   94.7480  134.2280 N.am  310  GLY310     -0.1954
    171  CA        81.5790   93.8230  134.5030 C.3   310  GLY310      0.1869
    172  C         82.1960   93.1230  133.3000 C.2   310  GLY310      0.2309
    173  O         82.1150   91.8990  133.1950 O.2   310  GLY310     -0.2863
@<TRIPOS>BOND
     1   157   156    1
     2   155   154    2
     3   154   153    1
     4   156   153    1
     5   156   158    1
     6   153   152    1
     7   169   168    2
     8   173   172    2
     9   172   171    1
    10   167   168    1
    11   167   166    1
    12   168   170   am
    13   166   161   am
    14   152   142   am
    15   159   160    1
    16   170   171    1
    17   142   143    2
    18   142   141    1
    19   161   160    1
    20   161   162    2
    21   160   163    1
    22   140   141    1
    23   164   163    1
    24   141   144    1
    25   144   145    1
    26   163   165    1
    27    56    54   am
    28    55    54    2
    29     1     2    1
    30    54    53    1
    31   145   146   ar
    32   145   147   ar
    33   146   148   ar
    34    93    90    1
    35    89    90    1
    36    90    91    1
    37     2     5    1
    38     2     3    1
    39    53    50    1
    40     7     6    2
    41   147   149   ar
    42   148   150   ar
    43     5     6    1
    44     6     8   am
    45    50    49    1
    46    50    51    1
    47    91    92    2
    48    91    94   am
    49     3     9   am
    50     3     4    2
    51     9    10    1
    52   149   150   ar
    53   150   151    1
    54    49    45   am
    55    51    52    2
    56    51    57   am
    57    94    95    1
    58   119   117    1
    59    10    11    1
    60    10    13    1
    61    11    12    2
    62    45    46    2
    63    45    44    1
    64   130   131    2
    65   130   129    1
    66    13    14    1
    67    57    58    1
    68    14    15    1
    69    43    44    1
    70    44    47    1
    71   117   118    1
    72   117   114    1
    73   129   128    1
    74   129   132    1
    75    95    98    1
    76    95    96    1
    77   136   134   ar
    78   136   138   ar
    79   116   115    2
    80   134   133   ar
    81   127   125    1
    82    58    59    1
    83    58    61    1
    84    15    16    1
    85    16    17    1
    86    96    97    2
    87    96    99   am
    88    26    25    1
    89   115   114    1
    90   115   120   am
    91    60    59    2
    92    99   100    1
    93   138   139    1
    94   138   137   ar
    95    18    19    1
    96   133   132    1
    97   133   135   ar
    98   114   113    1
    99   125   124    1
   100   125   126    1
   101    47    48    1
   102    61    62    1
   103   124   121    1
   104   121   120    1
   105   121   122    1
   106   100   101    1
   107   137   135   ar
   108    25    24    1
   109    42    39    1
   110    23    22    1
   111    23    24    1
   112   123   122    2
   113    19    22    1
   114    19    20    1
   115    40    41    2
   116    40    39    1
   117    62    64   ar
   118    62    63   ar
   119    20    21    2
   120   101   103   am
   121   101   102    2
   122    39    38    1
   123    64    66   ar
   124    63    65   ar
   125   112   111    2
   126   103   104    1
   127    38    36   am
   128   111   110    1
   129   109   110    1
   130   109   105   am
   131   108   107    1
   132    88    87    2
   133    66    65   ar
   134    86    87    1
   135    86    85    1
   136    77    76   ar
   137    77    75   ar
   138   104   105    1
   139   104   107    1
   140    36    35    1
   141    36    37    2
   142   105   106    2
   143    76    74   ar
   144    75    73   ar
   145    35    34    1
   146    85    80   am
   147    30    29    2
   148    34    29   am
   149    74    72   ar
   150    73    72   ar
   151    29    28    1
   152    80    81    2
   153    80    79    1
   154    72    71    1
   155    79    82    1
   156    79    78    1
   157    28    27    1
   158    28    31    1
   159    82    83    1
   160    71    68    1
   161    78    84    1
   162    31    33    1
   163    31    32    1
   164    67    68    1
   165    68    69    1
   166    83    84    1
   167    69    70    2
