@<TRIPOS>MOLECULE
tmp/1j0dB00.pdb
 193 186 0 0 0
SMALL
GASTEIGER

@<TRIPOS>ATOM
      1  N         16.6050  109.0290   27.8280 N.3    50  ASN50      -0.1225
      2  CA        16.1900  107.6920   28.2210 C.3    50  ASN50       0.1785
      3  C         15.5320  106.8280   27.1500 C.2    50  ASN50       0.2597
      4  O         15.7860  105.6290   27.0970 O.2    50  ASN50      -0.2718
      5  CB        15.2560  107.7830   29.4290 C.3    50  ASN50       0.1169
      6  CG        13.9390  108.4380   29.0920 C.2    50  ASN50       0.2627
      7  OD1       13.9030  109.5520   28.5670 O.2    50  ASN50      -0.2716
      8  ND2       12.8430  107.7480   29.3890 N.am   50  ASN50      -0.0877
      9  N         14.6910  107.4130   26.3030 N.am   51  THR51      -0.1953
     10  CA        14.0100  106.6220   25.2800 C.3    51  THR51       0.1897
     11  C         14.9800  105.8990   24.3350 C.2    51  THR51       0.2313
     12  O         14.6570  104.8300   23.8070 O.2    51  THR51      -0.2863
     13  CB        13.0390  107.4890   24.4490 C.3    51  THR51       0.1794
     14  OG1       13.7870  108.4120   23.6530 O.3    51  THR51      -0.2208
     15  CG2       12.1090  108.2780   25.3640 C.3    51  THR51       0.0378
     16  N         15.8610  102.4780   25.6860 N.3    54  LYS54      -0.1245
     17  CA        14.7530  101.5550   25.4410 C.3    54  LYS54       0.1561
     18  C         14.6890  101.0840   23.9860 C.2    54  LYS54       0.2260
     19  O         14.4690   99.9050   23.7160 O.2    54  LYS54      -0.2867
     20  CB        13.4150  102.2200   25.7880 C.3    54  LYS54       0.0271
     21  CG        13.3200  102.7840   27.1970 C.3    54  LYS54       0.0035
     22  CD        11.9190  103.3290   27.4790 C.3    54  LYS54       0.0206
     23  CE        11.8870  104.1170   28.7860 C.3    54  LYS54       0.1093
     24  NZ        10.5530  104.7460   29.0200 N.3    54  LYS54      -0.1314
     25  N          3.7970  108.0440   19.8480 N.3    73  ILE73      -0.1231
     26  CA         2.7740  108.9460   20.3660 C.3    73  ILE73       0.1692
     27  C          3.1600  109.5620   21.7030 C.2    73  ILE73       0.2593
     28  O          3.8550  108.9420   22.5040 O.2    73  ILE73      -0.2718
     29  CB         1.4410  108.2010   20.5370 C.3    73  ILE73       0.0266
     30  CG1        0.3310  109.1850   20.9000 C.3    73  ILE73       0.0019
     31  CG2        1.5830  107.1310   21.6180 C.3    73  ILE73       0.0020
     32  CD1       -1.0460  108.5740   20.8680 C.3    73  ILE73       0.0001
     33  N          2.7000  110.7860   21.9390 N.am   74  GLY74      -0.1942
     34  CA         3.0080  111.4730   23.1820 C.3    74  GLY74       0.2014
     35  C          2.2630  112.7870   23.2950 C.2    74  GLY74       0.2639
     36  O          1.2840  113.0020   22.5920 O.2    74  GLY74      -0.2714
     37  N          2.7200  113.6710   24.1750 N.am   75  GLY75      -0.1954
     38  CA         2.0520  114.9510   24.3350 C.3    75  GLY75       0.1869
     39  C          2.9170  116.1520   24.0020 C.2    75  GLY75       0.2309
     40  O          4.0250  116.2760   24.5110 O.2    75  GLY75      -0.2863
     41  N          6.4520  116.0430   24.0280 N.3    78  SER78      -0.1202
     42  CA         6.8820  114.6680   24.2440 C.3    78  SER78       0.2020
     43  C          8.3390  114.4530   23.8500 C.2    78  SER78       0.2619
     44  O          8.7420  114.7560   22.7260 O.2    78  SER78      -0.2717
     45  CB         5.9990  113.7140   23.4470 C.3    78  SER78       0.2103
     46  OG         6.5220  112.4060   23.4920 O.3    78  SER78      -0.2182
     47  N          9.1290  113.9260   24.7780 N.am   79  ASN79      -0.1960
     48  CA        10.5340  113.6750   24.5100 C.3    79  ASN79       0.1819
     49  C         10.6800  112.4630   23.6050 C.2    79  ASN79       0.2621
     50  O         11.4440  112.4850   22.6420 O.2    79  ASN79      -0.2715
     51  CB        11.2880  113.4480   25.8170 C.3    79  ASN79       0.1195
     52  CG        11.4870  114.7310   26.6070 C.2    79  ASN79       0.2630
     53  OD1       12.2110  115.6330   26.1770 O.2    79  ASN79      -0.2716
     54  ND2       10.8410  114.8210   27.7660 N.am   79  ASN79      -0.0877
     55  N          9.9270  111.4130   23.9060 N.am   80  GLN80      -0.1977
     56  CA         9.9900  110.1890   23.1210 C.3    80  GLN80       0.1601
     57  C          9.7880  110.4090   21.6280 C.2    80  GLN80       0.2287
     58  O         10.5530  109.8950   20.8160 O.2    80  GLN80      -0.2864
     59  CB         8.9630  109.1690   23.6220 C.3    80  GLN80       0.0394
     60  CG         8.9330  107.8960   22.7900 C.3    80  GLN80       0.0908
     61  CD         8.1930  106.7690   23.4660 C.2    80  GLN80       0.2608
     62  OE1        8.4760  106.4420   24.6160 O.2    80  GLN80      -0.2717
     63  NE2        7.2480  106.1570   22.7540 N.am   80  GLN80      -0.0878
     64  N         -1.7320  116.6050   26.6490 N.3   102  TRP102     -0.1241
     65  CA        -1.7570  115.9200   27.9330 C.3   102  TRP102      0.1605
     66  C         -1.4790  116.9050   29.0650 C.2   102  TRP102      0.2264
     67  O         -1.6630  116.5830   30.2420 O.2   102  TRP102     -0.2867
     68  CB        -0.7170  114.7920   27.9560 C.3   102  TRP102      0.0550
     69  CG        -1.0010  113.6560   26.9990 C.ar  102  TRP102      0.0003
     70  CD1       -2.1180  113.4870   26.2250 C.ar  102  TRP102      0.0946
     71  CD2       -0.1660  112.5180   26.7470 C.ar  102  TRP102      0.0152
     72  NE1       -2.0300  112.3140   25.5120 N.ar  102  TRP102     -0.2442
     73  CE2       -0.8430  111.7000   25.8140 C.ar  102  TRP102      0.0810
     74  CE3        1.0880  112.1100   27.2210 C.ar  102  TRP102      0.0012
     75  CZ2       -0.3060  110.4960   25.3440 C.ar  102  TRP102      0.0191
     76  CZ3        1.6200  110.9130   26.7530 C.ar  102  TRP102      0.0001
     77  CH2        0.9220  110.1200   25.8240 C.ar  102  TRP102      0.0015
     78  N          3.4870  105.0140   24.0320 N.3   163  ALA163     -0.1231
     79  CA         4.0450  106.0360   24.9130 C.3   163  ALA163      0.1694
     80  C          5.0090  105.4590   25.9460 C.2   163  ALA163      0.2592
     81  O          4.6690  104.5350   26.6870 O.2   163  ALA163     -0.2718
     82  CB         2.9170  106.7870   25.6120 C.3   163  ALA163      0.0304
     83  N          6.2160  106.0170   25.9930 N.am  164  GLY164     -0.1957
     84  CA         7.2120  105.5370   26.9340 C.3   164  GLY164      0.1869
     85  C          7.6630  104.1180   26.6340 C.2   164  GLY164      0.2309
     86  O          8.5060  103.5710   27.3480 O.2   164  GLY164     -0.2863
     87  N         12.6730  109.7190   38.1100 N.3   199  CYS199     -0.1221
     88  CA        11.3010  110.1440   37.8470 C.3   199  CYS199      0.1808
     89  C         10.5030  109.0000   37.2230 C.2   199  CYS199      0.2601
     90  O         11.0750  108.0910   36.6180 O.2   199  CYS199     -0.2717
     91  CB        11.3040  111.3590   36.9080 C.3   199  CYS199      0.0970
     92  SG         9.6570  111.9110   36.3790 S.3   199  CYS199     -0.0800
     93  N          9.1810  109.0570   37.3460 N.am  200  CYS200     -0.1956
     94  CA         8.3340  108.0000   36.8090 C.3   200  CYS200      0.1843
     95  C          6.9480  108.4730   36.3780 C.2   200  CYS200      0.2625
     96  O          6.3150  109.2770   37.0640 O.2   200  CYS200     -0.2714
     97  CB         8.1900  106.8980   37.8650 C.3   200  CYS200      0.0997
     98  SG         7.0350  105.5810   37.4550 S.3   200  CYS200     -0.0797
     99  N          6.4800  107.9790   35.2350 N.am  201  VAL201     -0.1963
    100  CA         5.1540  108.3380   34.7460 C.3   201  VAL201      0.1727
    101  C          4.5050  107.2480   33.8930 C.2   201  VAL201      0.2617
    102  O          3.3370  106.9290   34.1090 O.2   201  VAL201     -0.2715
    103  CB         5.1610  109.7120   33.9870 C.3   201  VAL201      0.0290
    104  CG1        6.5710  110.1720   33.7520 C.3   201  VAL201      0.0023
    105  CG2        4.4010  109.6050   32.6810 C.3   201  VAL201      0.0023
    106  N          5.2230  106.6710   32.9300 N.am  202  THR202     -0.1937
    107  CA         4.6180  105.6000   32.1290 C.3   202  THR202      0.2028
    108  C          5.1570  104.2320   32.5400 C.2   202  THR202      0.2643
    109  O          4.6140  103.2040   32.1410 O.2   202  THR202     -0.2714
    110  CB         4.8190  105.7900   30.5940 C.3   202  THR202      0.1808
    111  OG1        6.1900  105.5630   30.2380 O.3   202  THR202     -0.2208
    112  CG2        4.4150  107.1880   30.1760 C.3   202  THR202      0.0379
    113  N          6.2280  104.2180   33.3290 N.am  203  GLY203     -0.1939
    114  CA         6.7630  102.9490   33.7950 C.3   203  GLY203      0.2014
    115  C          8.1310  102.4470   33.3560 C.2   203  GLY203      0.2640
    116  O          9.1230  102.6500   34.0560 O.2   203  GLY203     -0.2714
    117  N          8.1720  101.7780   32.2040 N.am  204  SER204     -0.1935
    118  CA         9.3910  101.1820   31.6430 C.3   204  SER204      0.2055
    119  C         10.7350  101.5690   32.2600 C.2   204  SER204      0.2644
    120  O         11.4990  100.6940   32.6520 O.2   204  SER204     -0.2714
    121  CB         9.4280  101.3880   30.1220 C.3   204  SER204      0.2130
    122  OG         9.2490  102.7440   29.7700 O.3   204  SER204     -0.2179
    123  N         11.0400  102.8550   32.3630 N.am  205  THR205     -0.1936
    124  CA        12.3210  103.2520   32.9480 C.3   205  THR205      0.2028
    125  C         12.5010  102.6590   34.3480 C.2   205  THR205      0.2642
    126  O         13.4270  101.8860   34.5890 O.2   205  THR205     -0.2714
    127  CB        12.4490  104.7780   33.0730 C.3   205  THR205      0.1808
    128  OG1       12.2460  105.3810   31.7910 O.3   205  THR205     -0.2208
    129  CG2       13.8310  105.1510   33.5960 C.3   205  THR205      0.0379
    130  N         11.6140  103.0380   35.2660 N.am  206  THR206     -0.1950
    131  CA        11.6700  102.5610   36.6460 C.3   206  THR206      0.1897
    132  C         11.6300  101.0390   36.7230 C.2   206  THR206      0.2313
    133  O         12.4760  100.4260   37.3660 O.2   206  THR206     -0.2863
    134  CB        10.5020  103.1600   37.4910 C.3   206  THR206      0.1794
    135  OG1       10.7430  104.5570   37.7150 O.3   206  THR206     -0.2208
    136  CG2       10.3860  102.4510   38.8470 C.3   206  THR206      0.0378
    137  N          0.2750  116.6370   35.5190 N.3   269  TYR269     -0.1241
    138  CA         1.2870  116.1690   34.5860 C.3   269  TYR269      0.1605
    139  C          1.6740  117.2560   33.5900 C.2   269  TYR269      0.2264
    140  O          0.8530  117.6830   32.7780 O.2   269  TYR269     -0.2867
    141  CB         0.7840  114.9420   33.8240 C.3   269  TYR269      0.0534
    142  CG         1.6590  114.5850   32.6480 C.ar  269  TYR269     -0.0201
    143  CD1        3.0020  114.2520   32.8300 C.ar  269  TYR269     -0.0009
    144  CD2        1.1610  114.6290   31.3470 C.ar  269  TYR269     -0.0009
    145  CE1        3.8290  113.9760   31.7460 C.ar  269  TYR269      0.0417
    146  CE2        1.9780  114.3540   30.2560 C.ar  269  TYR269      0.0417
    147  CZ         3.3110  114.0300   30.4630 C.ar  269  TYR269      0.1957
    148  OH         4.1260  113.7760   29.3860 O.3   269  TYR269     -0.2866
    149  N         14.1470  119.8950   33.3560 N.3   292  ASP292     -0.1239
    150  CA        12.8890  120.4300   32.8570 C.3   292  ASP292      0.1674
    151  C         11.8060  120.4410   33.9310 C.2   292  ASP292      0.2266
    152  O         11.9050  119.7400   34.9380 O.2   292  ASP292     -0.2867
    153  CB        12.3990  119.5780   31.7040 C.3   292  ASP292      0.1410
    154  CG        11.9020  118.2480   32.1740 C.2   292  ASP292      0.3668
    155  OD1       10.6800  117.9990   32.0870 O.co2 292  ASP292     -0.2456
    156  OD2       12.7410  117.4630   32.6570 O.co2 292  ASP292     -0.2456
    157  N          9.4950  116.3910   33.9740 N.3   295  TYR295     -0.1227
    158  CA        10.0040  115.1810   34.6020 C.3   295  TYR295      0.1736
    159  C         11.1580  115.3980   35.5660 C.2   295  TYR295      0.2595
    160  O         10.9710  115.4720   36.7820 O.2   295  TYR295     -0.2718
    161  CB        10.4490  114.1810   33.5380 C.3   295  TYR295      0.0548
    162  CG         9.4150  113.8750   32.4800 C.ar  295  TYR295     -0.0200
    163  CD1        9.3960  114.5740   31.2700 C.ar  295  TYR295     -0.0009
    164  CD2        8.4810  112.8590   32.6650 C.ar  295  TYR295     -0.0009
    165  CE1        8.4760  114.2570   30.2710 C.ar  295  TYR295      0.0417
    166  CE2        7.5550  112.5380   31.6710 C.ar  295  TYR295      0.0417
    167  CZ         7.5620  113.2360   30.4810 C.ar  295  TYR295      0.1957
    168  OH         6.6690  112.9000   29.4940 O.3   295  TYR295     -0.2866
    169  N         12.3590  115.4910   35.0120 N.am  296  GLU296     -0.1979
    170  CA        13.5630  115.6630   35.8140 C.3   296  GLU296      0.1602
    171  C         13.5030  116.8090   36.8180 C.2   296  GLU296      0.2287
    172  O         14.2840  116.8520   37.7700 O.2   296  GLU296     -0.2864
    173  CB        14.7710  115.8300   34.8930 C.3   296  GLU296      0.0415
    174  CG        14.8790  114.7340   33.8380 C.3   296  GLU296      0.1163
    175  CD        14.6880  113.3420   34.4200 C.2   296  GLU296      0.3649
    176  OE1       13.6100  112.7440   34.2140 O.co2 296  GLU296     -0.2457
    177  OE2       15.6170  112.8510   35.0930 O.co2 296  GLU296     -0.2457
    178  N         17.1900  111.5660   33.1620 N.3   323  LEU323     -0.1231
    179  CA        16.6690  110.9510   31.9580 C.3   323  LEU323      0.1693
    180  C         16.6020  111.8810   30.7440 C.2   323  LEU323      0.2593
    181  O         16.1170  111.4830   29.6860 O.2   323  LEU323     -0.2718
    182  CB        15.2850  110.3790   32.2560 C.3   323  LEU323      0.0284
    183  CG        15.2850  109.3330   33.3750 C.3   323  LEU323      0.0019
    184  CD1       13.8800  108.8280   33.6190 C.3   323  LEU323      0.0001
    185  CD2       16.1930  108.1780   32.9890 C.3   323  LEU323      0.0001
    186  N         17.0930  113.1090   30.8940 N.am  324  GLY324     -0.1942
    187  CA        17.0630  114.0590   29.7920 C.3   324  GLY324      0.2014
    188  C         15.9010  115.0260   29.8980 C.2   324  GLY324      0.2639
    189  O         15.6050  115.5350   30.9830 O.2   324  GLY324     -0.2714
    190  N         15.2520  115.2940   28.7690 N.am  325  GLY325     -0.1954
    191  CA        14.1030  116.1850   28.7520 C.3   325  GLY325      0.1869
    192  C         14.3410  117.6830   28.8600 C.2   325  GLY325      0.2309
    193  O         13.3830  118.4450   28.9430 O.2   325  GLY325     -0.2863
@<TRIPOS>BOND
     1    25    26    1
     2    26    29    1
     3    26    27    1
     4    29    30    1
     5    29    31    1
     6    58    57    2
     7    32    30    1
     8    57    56    1
     9    27    33   am
    10    27    28    2
    11    33    34    1
    12    36    35    2
    13    50    49    2
    14    44    43    2
    15    63    61   am
    16    60    61    1
    17    60    59    1
    18    56    59    1
    19    56    55    1
    20    34    35    1
    21    35    37   am
    22    45    46    1
    23    45    42    1
    24    61    62    2
    25    49    55   am
    26    49    48    1
    27    14    13    1
    28    19    18    2
    29    12    11    2
    30    43    42    1
    31    43    47   am
    32    18    17    1
    33    39    38    1
    34    39    40    2
    35    41    42    1
    36    78    79    1
    37    37    38    1
    38    11    10    1
    39    13    10    1
    40    13    15    1
    41    48    47    1
    42    48    51    1
    43    79    82    1
    44    79    80    1
    45    10     9    1
    46    75    73   ar
    47    75    77   ar
    48    17    16    1
    49    17    20    1
    50    72    73   ar
    51    72    70   ar
    52    20    21    1
    53    73    71   ar
    54    51    52    1
    55    77    76   ar
    56    80    83   am
    57    80    81    2
    58    83    84    1
    59    53    52    2
    60    70    69   ar
    61     9     3   am
    62    52    54   am
    63    85    84    1
    64    85    86    2
    65    64    65    1
    66    71    69   ar
    67    71    74   ar
    68    76    74   ar
    69    69    68    1
    70     4     3    2
    71     3     2    1
    72    21    22    1
    73    22    23    1
    74     1     2    1
    75    65    68    1
    76    65    66    1
    77     2     5    1
    78     7     6    2
    79   191   190    1
    80   191   192    1
    81   190   188   am
    82    23    24    1
    83   192   193    2
    84    66    67    2
    85     6     8   am
    86     6     5    1
    87   148   147    1
    88   168   167    1
    89   181   180    2
    90   122   121    1
    91   187   188    1
    92   187   186    1
    93   188   189    2
    94   121   118    1
    95   112   110    1
    96   111   110    1
    97   146   147   ar
    98   146   144   ar
    99   165   167   ar
   100   165   163   ar
   101   147   145   ar
   102   167   166   ar
   103   110   107    1
   104   180   186   am
   105   180   179    1
   106   163   162   ar
   107   144   142   ar
   108   118   117    1
   109   118   119    1
   110   166   164   ar
   111   153   154    1
   112   153   150    1
   113   145   143   ar
   114   128   127    1
   115   179   182    1
   116   179   178    1
   117   155   154   ar
   118   107   108    1
   119   107   106    1
   120   109   108    2
   121   154   156   ar
   122   117   115   am
   123   182   183    1
   124   119   123   am
   125   119   120    2
   126   123   124    1
   127   162   164   ar
   128   162   161    1
   129   108   113   am
   130   142   143   ar
   131   142   141    1
   132   105   103    1
   133   140   139    2
   134   150   149    1
   135   150   151    1
   136   106   101   am
   137   124   127    1
   138   124   125    1
   139   185   183    1
   140   127   129    1
   141   113   114    1
   142   115   114    1
   143   115   116    2
   144   183   184    1
   145   161   158    1
   146   139   138    1
   147   104   103    1
   148   141   138    1
   149   174   175    1
   150   174   173    1
   151   101   102    2
   152   101   100    1
   153   151   152    2
   154   157   158    1
   155   103   100    1
   156   176   175   ar
   157   125   126    2
   158   125   130   am
   159   175   177   ar
   160   138   137    1
   161   158   159    1
   162   100    99    1
   163   173   170    1
   164   169   159   am
   165   169   170    1
   166    99    95   am
   167   130   131    1
   168   159   160    2
   169   170   171    1
   170    95    94    1
   171    95    96    2
   172    92    91    1
   173    90    89    2
   174   131   132    1
   175   131   134    1
   176   132   133    2
   177    94    93    1
   178    94    97    1
   179   171   172    2
   180    91    88    1
   181    89    93   am
   182    89    88    1
   183    98    97    1
   184   134   135    1
   185   134   136    1
   186    88    87    1
