@<TRIPOS>MOLECULE
tmp/1j0eC00.pdb
 147 139 0 0 0
SMALL
GASTEIGER

@<TRIPOS>ATOM
      1  N         22.2830   67.4930   23.9960 N.3    50  ASN50      -0.1225
      2  CA        20.9440   67.1620   24.4640 C.3    50  ASN50       0.1785
      3  C         20.8610   66.1810   25.6370 C.2    50  ASN50       0.2597
      4  O         19.9250   66.2490   26.4270 O.2    50  ASN50      -0.2718
      5  CB        20.1040   66.6380   23.2930 C.3    50  ASN50       0.1169
      6  CG        20.5450   65.2690   22.8180 C.2    50  ASN50       0.2627
      7  OD1       21.7360   65.0030   22.6710 O.2    50  ASN50      -0.2716
      8  ND2       19.5800   64.3950   22.5590 N.am   50  ASN50      -0.0877
      9  N         21.8230   65.2740   25.7620 N.am   51  LYS51      -0.1980
     10  CA        21.7860   64.3010   26.8470 C.3    51  LYS51       0.1596
     11  C         21.8400   64.9770   28.2090 C.2    51  LYS51       0.2287
     12  O         21.1730   64.5520   29.1430 O.2    51  LYS51      -0.2864
     13  CB        22.9470   63.3230   26.7280 C.3    51  LYS51       0.0298
     14  CG        23.0040   62.5820   25.4140 C.3    51  LYS51       0.0038
     15  CD        21.6400   62.2610   24.8780 C.3    51  LYS51       0.0206
     16  CE        21.7400   61.3790   23.6770 C.3    51  LYS51       0.1093
     17  NZ        20.9350   61.8970   22.5740 N.3    51  LYS51      -0.1314
     18  N         18.6140   65.9130   29.5700 N.3    54  LYS54      -0.1245
     19  CA        17.8880   64.7500   30.0750 C.3    54  LYS54       0.1561
     20  C         18.3900   64.3730   31.4670 C.2    54  LYS54       0.2260
     21  O         17.6120   64.0770   32.3840 O.2    54  LYS54      -0.2867
     22  CB        18.0830   63.5360   29.1630 C.3    54  LYS54       0.0271
     23  CG        17.6100   63.7060   27.7410 C.3    54  LYS54       0.0035
     24  CD        17.6110   62.3690   27.0130 C.3    54  LYS54       0.0206
     25  CE        17.3660   62.5630   25.5110 C.3    54  LYS54       0.1093
     26  NZ        17.2820   61.2610   24.7740 N.3    54  LYS54      -0.1314
     27  N         27.7020   60.2040   21.8940 N.3    79  ASN79      -0.1225
     28  CA        27.7730   61.4710   22.6050 C.3    79  ASN79       0.1785
     29  C         27.2880   61.1940   24.0340 C.2    79  ASN79       0.2597
     30  O         27.8210   61.7450   25.0010 O.2    79  ASN79      -0.2718
     31  CB        26.8680   62.5160   21.9520 C.3    79  ASN79       0.1169
     32  CG        27.3100   62.8870   20.5520 C.2    79  ASN79       0.2627
     33  OD1       28.3870   63.4450   20.3570 O.2    79  ASN79      -0.2716
     34  ND2       26.4730   62.5830   19.5680 N.am   79  ASN79      -0.0877
     35  N         26.2780   60.3290   24.1500 N.am   80  GLN80      -0.1979
     36  CA        25.6870   59.9380   25.4300 C.3    80  GLN80       0.1601
     37  C         26.7730   59.4710   26.4000 C.2    80  GLN80       0.2287
     38  O         26.8970   59.9780   27.5090 O.2    80  GLN80      -0.2864
     39  CB        24.6650   58.8150   25.2030 C.3    80  GLN80       0.0394
     40  CG        24.3110   57.9830   26.4320 C.3    80  GLN80       0.0908
     41  CD        23.2790   58.6400   27.3450 C.2    80  GLN80       0.2608
     42  OE1       22.8850   59.7930   27.1460 O.2    80  GLN80      -0.2717
     43  NE2       22.8430   57.9010   28.3580 N.am   80  GLN80      -0.0878
     44  N         28.9290   62.2220   27.6450 N.3    83  MET83      -0.1245
     45  CA        28.3560   63.1330   28.6150 C.3    83  MET83       0.1570
     46  C         28.2300   62.4600   29.9720 C.2    83  MET83       0.2261
     47  O         28.4370   63.0940   31.0010 O.2    83  MET83      -0.2867
     48  CB        27.0290   63.6910   28.1100 C.3    83  MET83       0.0387
     49  CG        27.2710   64.8930   27.2050 C.3    83  MET83       0.0595
     50  SD        25.8500   65.5710   26.3330 S.3    83  MET83      -0.1393
     51  CE        25.7610   64.4450   24.9320 C.3    83  MET83       0.0692
     52  N         21.1160   56.8840   25.3400 N.3   164  GLY164     -0.1225
     53  CA        20.5000   58.1980   25.3010 C.3   164  GLY164      0.1811
     54  C         19.5830   58.5690   26.4600 C.2   164  GLY164      0.2280
     55  O         18.8820   59.5790   26.3840 O.2   164  GLY164     -0.2866
     56  N         16.9550   57.5880   27.1570 N.3   166  SER166     -0.1217
     57  CA        15.5900   57.3380   26.7090 C.3   166  SER166      0.1889
     58  C         14.6940   56.4040   27.5140 C.2   166  SER166      0.2288
     59  O         13.6440   56.8310   27.9890 O.2   166  SER166     -0.2866
     60  CB        15.6200   56.9090   25.2450 C.3   166  SER166      0.2089
     61  OG        16.1040   57.9850   24.4560 O.3   166  SER166     -0.2183
     62  N         16.1840   65.7820   15.2570 N.3   199  CYS199     -0.1221
     63  CA        16.6560   64.4440   14.9120 C.3   199  CYS199      0.1808
     64  C         16.0990   63.4690   15.9550 C.2   199  CYS199      0.2601
     65  O         15.7970   63.8700   17.0760 O.2   199  CYS199     -0.2717
     66  CB        18.1940   64.4180   14.9090 C.3   199  CYS199      0.0970
     67  SG        18.9160   62.7800   14.6550 S.3   199  CYS199     -0.0800
     68  N         15.9620   62.1970   15.5920 N.am  200  CYS200     -0.1956
     69  CA        15.4200   61.2050   16.5100 C.3   200  CYS200      0.1843
     70  C         16.0220   59.8120   16.3330 C.2   200  CYS200      0.2625
     71  O         16.1120   59.3020   15.2150 O.2   200  CYS200     -0.2714
     72  CB        13.8860   61.1380   16.3490 C.3   200  CYS200      0.0997
     73  SG        13.0400   59.8170   17.2760 S.3   200  CYS200     -0.0797
     74  N         16.4320   59.2000   17.4460 N.am  201  VAL201     -0.1963
     75  CA        17.0030   57.8570   17.4150 C.3   201  VAL201      0.1727
     76  C         16.5230   56.9960   18.5840 C.2   201  VAL201      0.2617
     77  O         15.7340   56.0810   18.3680 O.2   201  VAL201     -0.2715
     78  CB        18.5600   57.8790   17.3870 C.3   201  VAL201      0.0290
     79  CG1       19.0920   56.4570   17.3620 C.3   201  VAL201      0.0023
     80  CG2       19.0530   58.6260   16.1550 C.3   201  VAL201      0.0023
     81  N         16.9850   57.2500   19.8110 N.am  202  THR202     -0.1937
     82  CA        16.5030   56.4280   20.9270 C.3   202  THR202      0.2028
     83  C         15.1310   56.8820   21.4560 C.2   202  THR202      0.2643
     84  O         14.5340   56.1960   22.2820 O.2   202  THR202     -0.2714
     85  CB        17.5170   56.3200   22.1140 C.3   202  THR202      0.1808
     86  OG1       17.8920   57.6180   22.5810 O.3   202  THR202     -0.2208
     87  CG2       18.7540   55.5540   21.6840 C.3   202  THR202      0.0379
     88  N         14.6520   58.0400   20.9920 N.am  203  GLY203     -0.1939
     89  CA        13.3190   58.5050   21.3640 C.3   203  GLY203      0.2014
     90  C         13.0540   59.6290   22.3500 C.2   203  GLY203      0.2640
     91  O         12.3590   60.5940   22.0250 O.2   203  GLY203     -0.2714
     92  N         13.5850   59.4810   23.5580 N.am  204  SER204     -0.1935
     93  CA        13.4200   60.4320   24.6530 C.3   204  SER204      0.2055
     94  C         13.4200   61.9220   24.3220 C.2   204  SER204      0.2644
     95  O         12.6510   62.6730   24.9180 O.2   204  SER204     -0.2714
     96  CB        14.4760   60.1480   25.7200 C.3   204  SER204      0.2130
     97  OG        14.6050   61.2340   26.6070 O.3   204  SER204     -0.2179
     98  N         14.2750   62.3650   23.4040 N.am  205  THR205     -0.1936
     99  CA        14.3070   63.7870   23.0480 C.3   205  THR205      0.2028
    100  C         13.0080   64.1870   22.3560 C.2   205  THR205      0.2642
    101  O         12.3730   65.1790   22.7220 O.2   205  THR205     -0.2714
    102  CB        15.4750   64.1310   22.0860 C.3   205  THR205      0.1808
    103  OG1       16.7200   63.8350   22.7200 O.3   205  THR205     -0.2208
    104  CG2       15.4570   65.6150   21.7080 C.3   205  THR205      0.0379
    105  N         12.6260   63.4180   21.3420 N.am  206  THR206     -0.1950
    106  CA        11.4060   63.6930   20.5950 C.3   206  THR206      0.1897
    107  C         10.1650   63.5040   21.4720 C.2   206  THR206      0.2313
    108  O          9.2790   64.3550   21.4980 O.2   206  THR206     -0.2863
    109  CB        11.3240   62.7910   19.3420 C.3   206  THR206      0.1794
    110  OG1       12.2590   63.2670   18.3670 O.3   206  THR206     -0.2208
    111  CG2        9.9100   62.7970   18.7450 C.3   206  THR206      0.0378
    112  N         23.9990   62.3200   13.4600 N.3   295  PHE295     -0.1227
    113  CA        22.6710   62.8080   13.8210 C.3   295  PHE295      0.1736
    114  C         22.1880   64.0860   13.1660 C.2   295  PHE295      0.2595
    115  O         21.3030   64.0720   12.3230 O.2   295  PHE295     -0.2718
    116  CB        22.5790   63.0060   15.3380 C.3   295  PHE295      0.0547
    117  CG        22.9530   61.7940   16.1360 C.ar  295  PHE295     -0.0202
    118  CD1       24.2500   61.6380   16.6270 C.ar  295  PHE295     -0.0042
    119  CD2       22.0140   60.8060   16.3990 C.ar  295  PHE295     -0.0042
    120  CE1       24.6010   60.5070   17.3730 C.ar  295  PHE295     -0.0003
    121  CE2       22.3470   59.6760   17.1390 C.ar  295  PHE295     -0.0003
    122  CZ        23.6430   59.5250   17.6280 C.ar  295  PHE295     -0.0000
    123  N         22.7670   65.1970   13.5890 N.am  296  GLU296     -0.1979
    124  CA        22.3770   66.5070   13.1120 C.3   296  GLU296      0.1602
    125  C         22.5800   66.7530   11.6350 C.2   296  GLU296      0.2287
    126  O         21.9770   67.6620   11.0740 O.2   296  GLU296     -0.2864
    127  CB        23.1190   67.5740   13.9270 C.3   296  GLU296      0.0415
    128  CG        23.0420   67.3040   15.4140 C.3   296  GLU296      0.1163
    129  CD        21.6150   67.0830   15.8830 C.2   296  GLU296      0.3649
    130  OE1       20.8550   68.0780   15.9330 O.co2 296  GLU296     -0.2457
    131  OE2       21.2510   65.9200   16.1840 O.co2 296  GLU296     -0.2457
    132  N         20.9070   69.3990   18.4870 N.3   323  LEU323     -0.1231
    133  CA        21.1860   68.5820   19.6500 C.3   323  LEU323      0.1693
    134  C         22.6660   68.3700   19.9930 C.2   323  LEU323      0.2593
    135  O         22.9620   67.6950   20.9760 O.2   323  LEU323     -0.2718
    136  CB        20.4900   67.2310   19.4660 C.3   323  LEU323      0.0284
    137  CG        18.9830   67.3780   19.2240 C.3   323  LEU323      0.0019
    138  CD1       18.3610   66.0660   18.7650 C.3   323  LEU323      0.0001
    139  CD2       18.3360   67.8670   20.5090 C.3   323  LEU323      0.0001
    140  N         23.5710   68.9520   19.1960 N.am  324  GLY324     -0.1942
    141  CA        25.0120   68.8120   19.4130 C.3   324  GLY324      0.2014
    142  C         25.6820   67.7240   18.5720 C.2   324  GLY324      0.2639
    143  O         25.3430   67.5470   17.4050 O.2   324  GLY324     -0.2714
    144  N         26.6540   67.0150   19.1420 N.am  325  GLY325     -0.1954
    145  CA        27.3000   65.9240   18.4280 C.3   325  GLY325      0.1869
    146  C         28.4520   66.1930   17.4730 C.2   325  GLY325      0.2309
    147  O         28.9630   65.2560   16.8590 O.2   325  GLY325     -0.2863
@<TRIPOS>BOND
     1   126   125    2
     2   125   124    1
     3   115   114    2
     4   124   123    1
     5   124   127    1
     6   114   123   am
     7   114   113    1
     8   112   113    1
     9   113   116    1
    10   127   128    1
    11    67    66    1
    12    66    63    1
    13    63    62    1
    14    63    64    1
    15    71    70    2
    16   116   117    1
    17   128   129    1
    18    68    64   am
    19    68    69    1
    20   129   130   ar
    21   129   131   ar
    22    64    65    2
    23   117   119   ar
    24   117   118   ar
    25    80    78    1
    26    70    69    1
    27    70    74   am
    28    72    69    1
    29    72    73    1
    30   119   121   ar
    31   118   120   ar
    32   147   146    2
    33   121   122   ar
    34    79    78    1
    35   120   122   ar
    36    78    75    1
    37   143   142    2
    38    75    74    1
    39    75    76    1
    40   146   145    1
    41   110   109    1
    42    77    76    2
    43   145   144    1
    44   132   133    1
    45   142   144   am
    46   142   141    1
    47    76    81   am
    48   111   109    1
    49   138   137    1
    50   140   141    1
    51   140   134   am
    52   137   136    1
    53   137   139    1
    54   109   106    1
    55   136   133    1
    56    34    32   am
    57   133   134    1
    58    81    82    1
    59   134   135    2
    60    33    32    2
    61    32    31    1
    62   106   105    1
    63   106   107    1
    64    82    83    1
    65    82    85    1
    66    88    89    1
    67    88    83   am
    68   105   100   am
    69    89    90    1
    70    83    84    2
    71   107   108    2
    72    87    85    1
    73   104   102    1
    74    27    28    1
    75    31    28    1
    76    91    90    2
    77   102   103    1
    78   102    99    1
    79    85    86    1
    80    90    92   am
    81   100   101    2
    82   100    99    1
    83     8     6   am
    84    17    16    1
    85    28    29    1
    86     7     6    2
    87     6     5    1
    88    99    98    1
    89     5     2    1
    90    98    94   am
    91    92    93    1
    92    16    15    1
    93     1     2    1
    94    29    35   am
    95    29    30    2
    96    35    36    1
    97    94    93    1
    98    94    95    2
    99    61    60    1
   100     2     3    1
   101    93    96    1
   102    26    25    1
   103    15    14    1
   104    51    50    1
   105    39    36    1
   106    39    40    1
   107    60    57    1
   108    53    52    1
   109    53    54    1
   110    14    13    1
   111    36    37    1
   112    25    24    1
   113     3     9   am
   114     3     4    2
   115    96    97    1
   116     9    10    1
   117    50    49    1
   118    55    54    2
   119    37    38    2
   120    40    41    1
   121    57    56    1
   122    57    58    1
   123    13    10    1
   124    10    11    1
   125    24    23    1
   126    42    41    2
   127    49    48    1
   128    41    43   am
   129    58    59    2
   130    44    45    1
   131    23    22    1
   132    48    45    1
   133    11    12    2
   134    45    46    1
   135    22    19    1
   136    18    19    1
   137    46    47    2
   138    19    20    1
   139    20    21    2
