@<TRIPOS>MOLECULE
tmp/1j0eC01.pdb
 116 112 0 0 0
SMALL
GASTEIGER

@<TRIPOS>ATOM
      1  N         22.2830   67.4930   23.9960 N.3    50  ASN50      -0.1225
      2  CA        20.9440   67.1620   24.4640 C.3    50  ASN50       0.1785
      3  C         20.8610   66.1810   25.6370 C.2    50  ASN50       0.2597
      4  O         19.9250   66.2490   26.4270 O.2    50  ASN50      -0.2718
      5  CB        20.1040   66.6380   23.2930 C.3    50  ASN50       0.1169
      6  CG        20.5450   65.2690   22.8180 C.2    50  ASN50       0.2627
      7  OD1       21.7360   65.0030   22.6710 O.2    50  ASN50      -0.2716
      8  ND2       19.5800   64.3950   22.5590 N.am   50  ASN50      -0.0877
      9  N         21.8230   65.2740   25.7620 N.am   51  LYS51      -0.1980
     10  CA        21.7860   64.3010   26.8470 C.3    51  LYS51       0.1596
     11  C         21.8400   64.9770   28.2090 C.2    51  LYS51       0.2287
     12  O         21.1730   64.5520   29.1430 O.2    51  LYS51      -0.2864
     13  CB        22.9470   63.3230   26.7280 C.3    51  LYS51       0.0298
     14  CG        23.0040   62.5820   25.4140 C.3    51  LYS51       0.0038
     15  CD        21.6400   62.2610   24.8780 C.3    51  LYS51       0.0206
     16  CE        21.7400   61.3790   23.6770 C.3    51  LYS51       0.1093
     17  NZ        20.9350   61.8970   22.5740 N.3    51  LYS51      -0.1314
     18  N         25.8730   53.2930   27.9610 N.3    73  ILE73      -0.1231
     19  CA        26.1940   52.5370   26.7730 C.3    73  ILE73       0.1692
     20  C         25.8200   53.3150   25.5270 C.2    73  ILE73       0.2593
     21  O         25.0070   54.2370   25.5730 O.2    73  ILE73      -0.2718
     22  CB        25.4310   51.2110   26.7920 C.3    73  ILE73       0.0266
     23  CG1       25.8790   50.3210   25.6410 C.3    73  ILE73       0.0019
     24  CG2       23.9350   51.4810   26.7070 C.3    73  ILE73       0.0020
     25  CD1       25.2790   48.9290   25.6940 C.3    73  ILE73       0.0001
     26  N         26.4190   52.9280   24.4080 N.am   74  GLY74      -0.1942
     27  CA        26.1490   53.5830   23.1440 C.3    74  GLY74       0.2014
     28  C         27.1020   53.0590   22.0880 C.2    74  GLY74       0.2639
     29  O         27.7240   52.0160   22.2810 O.2    74  GLY74      -0.2714
     30  N         27.2090   53.7700   20.9700 N.am   75  GLY75      -0.1954
     31  CA        28.1180   53.3430   19.9260 C.3    75  GLY75       0.1869
     32  C         29.5090   53.9080   20.1840 C.2    75  GLY75       0.2309
     33  O         29.7110   54.6480   21.1490 O.2    75  GLY75      -0.2863
     34  N         29.5990   57.5480   20.4620 N.3    78  SER78      -0.1202
     35  CA        28.4700   57.9860   21.2580 C.3    78  SER78       0.2020
     36  C         28.6770   59.3080   21.9970 C.2    78  SER78       0.2619
     37  O         29.7030   59.5180   22.6430 O.2    78  SER78      -0.2717
     38  CB        28.1220   56.9090   22.2720 C.3    78  SER78       0.2103
     39  OG        27.1590   57.3990   23.1770 O.3    78  SER78      -0.2182
     40  N         27.7020   60.2040   21.8940 N.am   79  ASN79      -0.1960
     41  CA        27.7730   61.4710   22.6050 C.3    79  ASN79       0.1819
     42  C         27.2880   61.1940   24.0340 C.2    79  ASN79       0.2621
     43  O         27.8210   61.7450   25.0010 O.2    79  ASN79      -0.2715
     44  CB        26.8680   62.5160   21.9520 C.3    79  ASN79       0.1195
     45  CG        27.3100   62.8870   20.5520 C.2    79  ASN79       0.2630
     46  OD1       28.3870   63.4450   20.3570 O.2    79  ASN79      -0.2716
     47  ND2       26.4730   62.5830   19.5680 N.am   79  ASN79      -0.0877
     48  N         26.2780   60.3290   24.1500 N.am   80  GLN80      -0.1977
     49  CA        25.6870   59.9380   25.4300 C.3    80  GLN80       0.1601
     50  C         26.7730   59.4710   26.4000 C.2    80  GLN80       0.2287
     51  O         26.8970   59.9780   27.5090 O.2    80  GLN80      -0.2864
     52  CB        24.6650   58.8150   25.2030 C.3    80  GLN80       0.0394
     53  CG        24.3110   57.9830   26.4320 C.3    80  GLN80       0.0908
     54  CD        23.2790   58.6400   27.3450 C.2    80  GLN80       0.2608
     55  OE1       22.8850   59.7930   27.1460 O.2    80  GLN80      -0.2717
     56  NE2       22.8430   57.9010   28.3580 N.am   80  GLN80      -0.0878
     57  N         28.2620   49.9040   16.6260 N.3   102  TRP102     -0.1241
     58  CA        26.9990   50.2630   15.9910 C.3   102  TRP102      0.1605
     59  C         27.1110   50.7820   14.5760 C.2   102  TRP102      0.2264
     60  O         26.1070   50.8910   13.8750 O.2   102  TRP102     -0.2867
     61  CB        26.2600   51.3100   16.8380 C.3   102  TRP102      0.0550
     62  CG        25.6540   50.7720   18.1160 C.ar  102  TRP102      0.0003
     63  CD1       25.7580   49.4990   18.6070 C.ar  102  TRP102      0.0946
     64  CD2       24.8490   51.4970   19.0560 C.ar  102  TRP102      0.0152
     65  NE1       25.0680   49.3880   19.7920 N.ar  102  TRP102     -0.2442
     66  CE2       24.5010   50.5990   20.0910 C.ar  102  TRP102      0.0810
     67  CE3       24.3880   52.8210   19.1260 C.ar  102  TRP102      0.0012
     68  CZ2       23.7120   50.9810   21.1820 C.ar  102  TRP102      0.0191
     69  CZ3       23.6050   53.1980   20.2140 C.ar  102  TRP102      0.0001
     70  CH2       23.2760   52.2790   21.2240 C.ar  102  TRP102      0.0015
     71  N         20.8220   53.6780   26.6900 N.3   163  ALA163     -0.1231
     72  CA        21.1560   54.4720   25.5160 C.3   163  ALA163      0.1694
     73  C         20.3880   55.7860   25.5040 C.2   163  ALA163      0.2592
     74  O         19.1660   55.8020   25.6600 O.2   163  ALA163     -0.2718
     75  CB        20.8620   53.6770   24.2480 C.3   163  ALA163      0.0304
     76  N         21.1160   56.8840   25.3400 N.am  164  GLY164     -0.1957
     77  CA        20.5000   58.1980   25.3010 C.3   164  GLY164      0.1869
     78  C         19.5830   58.5690   26.4600 C.2   164  GLY164      0.2309
     79  O         18.8820   59.5790   26.3840 O.2   164  GLY164     -0.2863
     80  N         16.4320   59.2000   17.4460 N.3   201  VAL201     -0.1231
     81  CA        17.0030   57.8570   17.4150 C.3   201  VAL201      0.1692
     82  C         16.5230   56.9960   18.5840 C.2   201  VAL201      0.2592
     83  O         15.7340   56.0810   18.3680 O.2   201  VAL201     -0.2718
     84  CB        18.5600   57.8790   17.3870 C.3   201  VAL201      0.0266
     85  CG1       19.0920   56.4570   17.3620 C.3   201  VAL201      0.0020
     86  CG2       19.0530   58.6260   16.1550 C.3   201  VAL201      0.0020
     87  N         16.9850   57.2500   19.8110 N.am  202  THR202     -0.1953
     88  CA        16.5030   56.4280   20.9270 C.3   202  THR202      0.1897
     89  C         15.1310   56.8820   21.4560 C.2   202  THR202      0.2313
     90  O         14.5340   56.1960   22.2820 O.2   202  THR202     -0.2863
     91  CB        17.5170   56.3200   22.1140 C.3   202  THR202      0.1794
     92  OG1       17.8920   57.6180   22.5810 O.3   202  THR202     -0.2208
     93  CG2       18.7540   55.5540   21.6840 C.3   202  THR202      0.0378
     94  N         22.5050   53.7120   10.3810 N.3   269  TYR269     -0.1241
     95  CA        22.9450   54.4610   11.5460 C.3   269  TYR269      0.1605
     96  C         24.4430   54.7560   11.4860 C.2   269  TYR269      0.2264
     97  O         25.2420   53.8860   11.1490 O.2   269  TYR269     -0.2867
     98  CB        22.6380   53.6790   12.8280 C.3   269  TYR269      0.0534
     99  CG        23.1110   54.3930   14.0790 C.ar  269  TYR269     -0.0201
    100  CD1       22.4750   55.5540   14.5240 C.ar  269  TYR269     -0.0009
    101  CD2       24.2330   53.9460   14.7800 C.ar  269  TYR269     -0.0009
    102  CE1       22.9480   56.2600   15.6390 C.ar  269  TYR269      0.0417
    103  CE2       24.7140   54.6410   15.8950 C.ar  269  TYR269      0.0417
    104  CZ        24.0690   55.7980   16.3190 C.ar  269  TYR269      0.1957
    105  OH        24.5420   56.4910   17.4150 O.3   269  TYR269     -0.2866
    106  N         23.9990   62.3200   13.4600 N.3   295  PHE295     -0.1241
    107  CA        22.6710   62.8080   13.8210 C.3   295  PHE295      0.1605
    108  C         22.1880   64.0860   13.1660 C.2   295  PHE295      0.2264
    109  O         21.3030   64.0720   12.3230 O.2   295  PHE295     -0.2867
    110  CB        22.5790   63.0060   15.3380 C.3   295  PHE295      0.0534
    111  CG        22.9530   61.7940   16.1360 C.ar  295  PHE295     -0.0203
    112  CD1       24.2500   61.6380   16.6270 C.ar  295  PHE295     -0.0042
    113  CD2       22.0140   60.8060   16.3990 C.ar  295  PHE295     -0.0042
    114  CE1       24.6010   60.5070   17.3730 C.ar  295  PHE295     -0.0003
    115  CE2       22.3470   59.6760   17.1390 C.ar  295  PHE295     -0.0003
    116  CZ        23.6430   59.5250   17.6280 C.ar  295  PHE295     -0.0000
@<TRIPOS>BOND
     1    94    95    1
     2    97    96    2
     3    96    95    1
     4    95    98    1
     5   109   108    2
     6    98    99    1
     7   108   107    1
     8   106   107    1
     9   107   110    1
    10    60    59    2
    11    99   100   ar
    12    99   101   ar
    13   100   102   ar
    14    59    58    1
    15   101   103   ar
    16   110   111    1
    17   102   104   ar
    18   103   104   ar
    19    58    57    1
    20    58    61    1
    21   111   113   ar
    22   111   112   ar
    23    86    84    1
    24   104   105    1
    25   113   115   ar
    26   112   114   ar
    27    61    62    1
    28   115   116   ar
    29    85    84    1
    30   114   116   ar
    31    84    81    1
    32    81    80    1
    33    81    82    1
    34    62    63   ar
    35    62    64   ar
    36    83    82    2
    37    82    87   am
    38    63    65   ar
    39    64    67   ar
    40    64    66   ar
    41    67    69   ar
    42    47    45   am
    43    65    66   ar
    44    87    88    1
    45    31    32    1
    46    31    30    1
    47    66    68   ar
    48    32    33    2
    49    69    70   ar
    50    46    45    2
    51    34    35    1
    52    45    44    1
    53    88    89    1
    54    88    91    1
    55    30    28   am
    56    68    70   ar
    57    35    36    1
    58    35    38    1
    59    89    90    2
    60    93    91    1
    61    40    36   am
    62    40    41    1
    63    44    41    1
    64    36    37    2
    65    28    29    2
    66    28    27    1
    67    91    92    1
    68    38    39    1
    69     8     6   am
    70    17    16    1
    71    41    42    1
    72     7     6    2
    73     6     5    1
    74    27    26    1
    75     5     2    1
    76    16    15    1
    77     1     2    1
    78    42    48   am
    79    42    43    2
    80    48    49    1
    81    75    72    1
    82    26    20   am
    83     2     3    1
    84    15    14    1
    85    52    49    1
    86    52    53    1
    87    77    76    1
    88    77    78    1
    89    76    73   am
    90    14    13    1
    91    49    50    1
    92    73    72    1
    93    73    74    2
    94    72    71    1
    95    20    21    2
    96    20    19    1
    97     3     9   am
    98     3     4    2
    99    23    25    1
   100    23    22    1
   101     9    10    1
   102    79    78    2
   103    50    51    2
   104    53    54    1
   105    24    22    1
   106    13    10    1
   107    19    22    1
   108    19    18    1
   109    10    11    1
   110    55    54    2
   111    54    56   am
   112    11    12    2
