@<TRIPOS>MOLECULE
tmp/1j0iB00.pdb
 188 183 0 0 0
SMALL
GASTEIGER

@<TRIPOS>ATOM
      1  N         31.0060  -31.5900    3.1210 N.3   167  PRO167     -0.2102
      2  CA        30.3580  -31.6840    4.4310 C.3   167  PRO167      0.1504
      3  C         30.3470  -33.1030    4.9990 C.2   167  PRO167      0.2576
      4  O         30.1520  -33.2880    6.2020 O.2   167  PRO167     -0.2718
      5  CB        28.9450  -31.1730    4.1570 C.3   167  PRO167      0.0282
      6  CG        29.1320  -30.2390    2.9780 C.3   167  PRO167      0.0208
      7  CD        30.0940  -31.0050    2.1190 C.3   167  PRO167      0.0893
      8  N         30.5650  -34.0990    4.1400 N.am  168  THR168     -0.1953
      9  CA        30.5430  -35.4910    4.5760 C.3   168  THR168      0.1897
     10  C         31.8140  -36.2970    4.3240 C.2   168  THR168      0.2313
     11  O         31.9070  -37.4490    4.7410 O.2   168  THR168     -0.2863
     12  CB        29.3610  -36.2460    3.9250 C.3   168  THR168      0.1794
     13  OG1       29.4320  -36.1050    2.5020 O.3   168  THR168     -0.2208
     14  CG2       28.0270  -35.6840    4.4140 C.3   168  THR168      0.0378
     15  N         30.0330  -37.5350   12.2450 N.3   203  SER203     -0.1217
     16  CA        30.5450  -36.5600   11.2800 C.3   203  SER203      0.1889
     17  C         32.0560  -36.3730   11.3140 C.2   203  SER203      0.2288
     18  O         32.7340  -36.8760   12.2090 O.2   203  SER203     -0.2866
     19  CB        29.8830  -35.2020   11.5080 C.3   203  SER203      0.2089
     20  OG        30.3550  -34.6090   12.7100 O.3   203  SER203     -0.2183
     21  N         33.4070  -33.3840   11.5580 N.3   205  HIS205     -0.1241
     22  CA        33.6700  -32.2120   12.3900 C.3   205  HIS205      0.1621
     23  C         33.4030  -32.5680   13.8510 C.2   205  HIS205      0.2264
     24  O         34.0970  -32.1010   14.7500 O.2   205  HIS205     -0.2867
     25  CB        32.8180  -31.0140   11.9270 C.3   205  HIS205      0.0745
     26  CG        31.3520  -31.3020   11.8200 C.ar  205  HIS205      0.0817
     27  ND1       30.5240  -31.3740   12.9190 N.ar  205  HIS205     -0.2268
     28  CD2       30.5600  -31.5100   10.7410 C.ar  205  HIS205      0.1154
     29  CE1       29.2860  -31.6100   12.5220 C.ar  205  HIS205      0.1986
     30  NE2       29.2800  -31.6970   11.2050 N.ar  205  HIS205     -0.2212
     31  N         30.6400  -31.9920   15.9240 N.3   207  TYR207     -0.1227
     32  CA        29.9710  -31.0370   16.7960 C.3   207  TYR207      0.1736
     33  C         28.6190  -31.6110   17.2110 C.2   207  TYR207      0.2595
     34  O         27.9070  -31.0350   18.0380 O.2   207  TYR207     -0.2718
     35  CB        29.8120  -29.6990   16.0820 C.3   207  TYR207      0.0548
     36  CG        31.0390  -28.8360   16.2250 C.ar  207  TYR207     -0.0200
     37  CD1       31.3120  -28.1800   17.4260 C.ar  207  TYR207     -0.0009
     38  CD2       31.9560  -28.7140   15.1830 C.ar  207  TYR207     -0.0009
     39  CE1       32.4650  -27.4290   17.5860 C.ar  207  TYR207      0.0417
     40  CE2       33.1230  -27.9630   15.3360 C.ar  207  TYR207      0.0417
     41  CZ        33.3680  -27.3250   16.5410 C.ar  207  TYR207      0.1957
     42  OH        34.5230  -26.5990   16.7080 O.3   207  TYR207     -0.2866
     43  N         28.2740  -32.7540   16.6180 N.am  208  ASP208     -0.1974
     44  CA        27.0460  -33.4680   16.9400 C.3   208  ASP208      0.1709
     45  C         27.5360  -34.7140   17.6810 C.2   208  ASP208      0.2293
     46  O         27.6750  -35.7990   17.1090 O.2   208  ASP208     -0.2864
     47  CB        26.2730  -33.8220   15.6600 C.3   208  ASP208      0.1436
     48  CG        27.0930  -34.6360   14.6680 C.2   208  ASP208      0.3671
     49  OD1       28.3260  -34.4390   14.5860 O.co2 208  ASP208     -0.2456
     50  OD2       26.4960  -35.4640   13.9460 O.co2 208  ASP208     -0.2456
     51  N         24.5280  -28.2890   22.6580 N.3   247  HIS247     -0.1241
     52  CA        23.6840  -29.2870   22.0250 C.3   247  HIS247      0.1621
     53  C         24.4560  -30.5830   21.8900 C.2   247  HIS247      0.2264
     54  O         25.6920  -30.5810   21.8440 O.2   247  HIS247     -0.2867
     55  CB        23.2540  -28.8150   20.6350 C.3   247  HIS247      0.0745
     56  CG        24.3890  -28.3170   19.7910 C.ar  247  HIS247      0.0817
     57  ND1       24.7790  -26.9950   19.7720 N.ar  247  HIS247     -0.2268
     58  CD2       25.2540  -28.9750   18.9830 C.ar  247  HIS247      0.1154
     59  CE1       25.8350  -26.8600   18.9910 C.ar  247  HIS247      0.1986
     60  NE2       26.1450  -28.0470   18.5010 N.ar  247  HIS247     -0.2212
     61  N         20.7120  -26.4960   17.5800 N.3   289  PHE289     -0.1241
     62  CA        21.6910  -25.5090   17.1420 C.3   289  PHE289      0.1605
     63  C         21.0990  -25.0610   15.8220 C.2   289  PHE289      0.2264
     64  O         20.7020  -25.9010   15.0180 O.2   289  PHE289     -0.2867
     65  CB        23.0580  -26.1360   16.8760 C.3   289  PHE289      0.0534
     66  CG        23.9770  -25.2400   16.0940 C.ar  289  PHE289     -0.0203
     67  CD1       24.3790  -24.0120   16.6160 C.ar  289  PHE289     -0.0042
     68  CD2       24.3790  -25.5830   14.8060 C.ar  289  PHE289     -0.0042
     69  CE1       25.1660  -23.1320   15.8610 C.ar  289  PHE289     -0.0003
     70  CE2       25.1650  -24.7140   14.0430 C.ar  289  PHE289     -0.0003
     71  CZ        25.5580  -23.4850   14.5730 C.ar  289  PHE289     -0.0000
     72  N         19.3560  -27.3720   12.8360 N.3   292  VAL292     -0.1231
     73  CA        19.8820  -28.6970   12.5210 C.3   292  VAL292      0.1678
     74  C         19.1590  -29.7340   13.3860 C.2   292  VAL292      0.2434
     75  O         19.2110  -29.6750   14.6120 O.2   292  VAL292     -0.2733
     76  CB        21.3930  -28.7710   12.8100 C.3   292  VAL292      0.0265
     77  CG1       21.8940  -30.1820   12.5900 C.3   292  VAL292      0.0020
     78  CG2       22.1420  -27.7920   11.9110 C.3   292  VAL292      0.0020
     79  N         18.4570  -30.6910   12.7560 N.am  293  PRO293     -0.2718
     80  CA        17.7500  -31.6970   13.5530 C.3   293  PRO293      0.1535
     81  C         18.6600  -32.6270   14.3460 C.2   293  PRO293      0.2598
     82  O         18.2730  -33.1180   15.4020 O.2   293  PRO293     -0.2715
     83  CB        16.9240  -32.4410   12.5080 C.3   293  PRO293      0.0310
     84  CG        16.6410  -31.3740   11.4930 C.3   293  PRO293      0.0237
     85  CD        17.9890  -30.7150   11.3590 C.3   293  PRO293      0.0939
     86  N         19.8690  -32.8570   13.8420 N.am  294  GLN294     -0.1964
     87  CA        20.8140  -33.7500   14.5060 C.3   294  GLN294      0.1733
     88  C         21.5590  -33.1030   15.6630 C.2   294  GLN294      0.2616
     89  O         22.4330  -33.7270   16.2650 O.2   294  GLN294     -0.2715
     90  CB        21.8350  -34.2910   13.5050 C.3   294  GLN294      0.0408
     91  CG        21.2270  -34.8640   12.2450 C.3   294  GLN294      0.0908
     92  CD        20.7290  -33.7840   11.3090 C.2   294  GLN294      0.2608
     93  OE1       21.5120  -32.9780   10.7970 O.2   294  GLN294     -0.2717
     94  NE2       19.4210  -33.7550   11.0820 N.am  294  GLN294     -0.0878
     95  N         21.2210  -31.8580   15.9770 N.am  295  MET295     -0.1977
     96  CA        21.8880  -31.1630   17.0690 C.3   295  MET295      0.1605
     97  C         20.8970  -30.5320   18.0400 C.2   295  MET295      0.2287
     98  O         20.7700  -29.3100   18.1020 O.2   295  MET295     -0.2864
     99  CB        22.8230  -30.0910   16.5080 C.3   295  MET295      0.0413
    100  CG        23.8220  -30.6280   15.5030 C.3   295  MET295      0.0598
    101  SD        24.9580  -29.3710   14.9350 S.3   295  MET295     -0.1393
    102  CE        26.4760  -30.3220   14.8060 C.3   295  MET295      0.0692
    103  N         37.5480  -24.9750   25.1020 N.3   326  ARG326     -0.1245
    104  CA        37.0120  -24.0170   24.1300 C.3   326  ARG326      0.1563
    105  C         35.5260  -24.3340   24.0790 C.2   326  ARG326      0.2260
    106  O         35.1250  -25.3770   23.5670 O.2   326  ARG326     -0.2867
    107  CB        37.6630  -24.2250   22.7570 C.3   326  ARG326      0.0307
    108  CG        37.1180  -23.3440   21.6300 C.3   326  ARG326      0.0489
    109  CD        35.8500  -23.9360   21.0050 C.3   326  ARG326      0.2205
    110  NE        35.4580  -23.2140   19.7980 N.pl3 326  ARG326     -0.0865
    111  CZ        34.4660  -23.5700   18.9880 C.cat 326  ARG326      0.5346
    112  NH1       33.7360  -24.6540   19.2360 N.pl3 326  ARG326      0.1354
    113  NH2       34.2090  -22.8320   17.9210 N.pl3 326  ARG326      0.1354
    114  N         32.1020  -24.3590   22.7310 N.3   328  ASP328     -0.1225
    115  CA        31.3340  -24.2520   21.5010 C.3   328  ASP328      0.1805
    116  C         29.9730  -23.5780   21.7140 C.2   328  ASP328      0.2597
    117  O         29.2340  -23.9500   22.6160 O.2   328  ASP328     -0.2718
    118  CB        31.1290  -25.6490   20.9220 C.3   328  ASP328      0.1424
    119  CG        30.3500  -25.6250   19.6450 C.2   328  ASP328      0.3668
    120  OD1       30.8710  -25.0750   18.6600 O.co2 328  ASP328     -0.2456
    121  OD2       29.2180  -26.1420   19.6270 O.co2 328  ASP328     -0.2456
    122  N         29.6420  -22.6070   20.8650 N.am  329  VAL329     -0.1980
    123  CA        28.3820  -21.8620   20.9690 C.3   329  VAL329      0.1595
    124  C         28.0750  -21.5100   22.4310 C.2   329  VAL329      0.2287
    125  O         26.9640  -21.7270   22.9170 O.2   329  VAL329     -0.2864
    126  CB        27.1870  -22.6670   20.3940 C.3   329  VAL329      0.0276
    127  CG1       26.0030  -21.7330   20.1590 C.3   329  VAL329      0.0022
    128  CG2       27.5840  -23.3560   19.0930 C.3   329  VAL329      0.0022
    129  N         33.2530  -19.6480   22.6730 N.3   357  GLU357     -0.1245
    130  CA        33.0970  -19.2430   21.2890 C.3   357  GLU357      0.1567
    131  C         31.9420  -18.2560   21.2060 C.2   357  GLU357      0.2260
    132  O         30.7830  -18.6430   21.2820 O.2   357  GLU357     -0.2867
    133  CB        32.7970  -20.4310   20.3690 C.3   357  GLU357      0.0388
    134  CG        32.5930  -19.9800   18.9230 C.3   357  GLU357      0.1160
    135  CD        31.7160  -20.9030   18.1030 C.2   357  GLU357      0.3649
    136  OE1       30.6950  -21.3810   18.6210 O.co2 357  GLU357     -0.2457
    137  OE2       32.0350  -21.1360   16.9250 O.co2 357  GLU357     -0.2457
    138  N         31.1290  -14.7340   18.8300 N.3   359  TRP359     -0.1241
    139  CA        31.5640  -13.8340   17.7650 C.3   359  TRP359      0.1605
    140  C         31.2760  -12.3650   18.0240 C.2   359  TRP359      0.2264
    141  O         31.9410  -11.4910   17.4660 O.2   359  TRP359     -0.2867
    142  CB        30.9140  -14.2380   16.4370 C.3   359  TRP359      0.0550
    143  CG        31.3210  -15.6010   15.9320 C.ar  359  TRP359      0.0003
    144  CD1       31.2550  -16.7880   16.6120 C.ar  359  TRP359      0.0946
    145  CD2       31.8110  -15.9180   14.6230 C.ar  359  TRP359      0.0152
    146  NE1       31.6690  -17.8200   15.8060 N.ar  359  TRP359     -0.2442
    147  CE2       32.0160  -17.3150   14.5800 C.ar  359  TRP359      0.0810
    148  CE3       32.0940  -15.1570   13.4800 C.ar  359  TRP359      0.0012
    149  CZ2       32.4940  -17.9690   13.4340 C.ar  359  TRP359      0.0191
    150  CZ3       32.5690  -15.8110   12.3400 C.ar  359  TRP359      0.0001
    151  CH2       32.7620  -17.2030   12.3310 C.ar  359  TRP359      0.0015
    152  N         38.0440  -22.7720   11.4410 N.3   423  HIS423     -0.1226
    153  CA        37.3910  -23.7810   10.6320 C.3   423  HIS423      0.1752
    154  C         35.9930  -23.3170   10.2410 C.2   423  HIS423      0.2596
    155  O         35.2440  -24.0600    9.6040 O.2   423  HIS423     -0.2718
    156  CB        37.3330  -25.1170   11.3860 C.3   423  HIS423      0.0759
    157  CG        36.5840  -25.0590   12.6810 C.ar  423  HIS423      0.0818
    158  ND1       36.8720  -24.1410   13.6690 N.ar  423  HIS423     -0.2268
    159  CD2       35.5780  -25.8260   13.1630 C.ar  423  HIS423      0.1154
    160  CE1       36.0760  -24.3460   14.7030 C.ar  423  HIS423      0.1986
    161  NE2       35.2820  -25.3630   14.4220 N.ar  423  HIS423     -0.2212
    162  N         35.6480  -22.0820   10.6160 N.am  424  ASP424     -0.1974
    163  CA        34.3360  -21.5190   10.2870 C.3   424  ASP424      0.1709
    164  C         34.4350  -20.2450    9.4530 C.2   424  ASP424      0.2293
    165  O         33.4540  -19.5100    9.3160 O.2   424  ASP424     -0.2864
    166  CB        33.5260  -21.2100   11.5520 C.3   424  ASP424      0.1436
    167  CG        33.2710  -22.4340   12.4040 C.2   424  ASP424      0.3671
    168  OD1       32.9010  -23.4950   11.8560 O.co2 424  ASP424     -0.2456
    169  OD2       33.4300  -22.3270   13.6360 O.co2 424  ASP424     -0.2456
    170  N         33.8550  -22.7920    5.1780 N.3   468  ASP468     -0.1239
    171  CA        33.4350  -24.1680    5.4680 C.3   468  ASP468      0.1674
    172  C         32.6400  -24.7150    4.2820 C.2   468  ASP468      0.2266
    173  O         31.6690  -24.0940    3.8520 O.2   468  ASP468     -0.2867
    174  CB        32.5540  -24.1770    6.7280 C.3   468  ASP468      0.1410
    175  CG        32.2380  -25.5790    7.2310 C.2   468  ASP468      0.3668
    176  OD1       31.3410  -25.7140    8.0860 O.co2 468  ASP468     -0.2456
    177  OD2       32.8860  -26.5460    6.7870 O.co2 468  ASP468     -0.2456
    178  N         38.5960  -26.4710    5.3530 N.3   472  ARG472     -0.1245
    179  CA        38.9870  -27.6710    6.0900 C.3   472  ARG472      0.1563
    180  C         39.7350  -28.7230    5.2630 C.2   472  ARG472      0.2260
    181  O         39.5230  -29.9210    5.4470 O.2   472  ARG472     -0.2867
    182  CB        37.7490  -28.2930    6.7510 C.3   472  ARG472      0.0307
    183  CG        37.0130  -27.3200    7.6690 C.3   472  ARG472      0.0489
    184  CD        35.7040  -27.8810    8.1990 C.3   472  ARG472      0.2205
    185  NE        34.9710  -26.8700    8.9570 N.pl3 472  ARG472     -0.0865
    186  CZ        33.8280  -27.0890    9.6030 C.cat 472  ARG472      0.5346
    187  NH1       33.2660  -28.2980    9.5950 N.pl3 472  ARG472      0.1354
    188  NH2       33.2410  -26.0900   10.2510 N.pl3 472  ARG472      0.1354
@<TRIPOS>BOND
     1     7     6    1
     2     7     1    1
     3    13    12    1
     4     6     5    1
     5     1     2    1
     6   173   172    2
     7    12    14    1
     8    12     9    1
     9     8     9    1
    10     8     3   am
    11     5     2    1
    12   172   171    1
    13    10     9    1
    14    10    11    2
    15     2     3    1
    16     3     4    2
    17   170   171    1
    18   180   181    2
    19   180   179    1
    20   178   179    1
    21   171   174    1
    22   179   182    1
    23   174   175    1
    24   182   183    1
    25   177   175   ar
    26   175   176   ar
    27   183   184    1
    28   184   185    1
    29   185   186    2
    30   165   164    2
    31   164   163    1
    32   187   186    1
    33   186   188    1
    34   155   154    2
    35   154   162   am
    36   154   153    1
    37   163   162    1
    38   163   166    1
    39   153   156    1
    40   153   152    1
    41    28    30   ar
    42    28    26   ar
    43    93    92    2
    44    94    92   am
    45    30    29   ar
    46    16    17    1
    47    16    19    1
    48    16    15    1
    49    92    91    1
    50    17    18    2
    51    85    84    1
    52    85    79    1
    53   156   157    1
    54    84    83    1
    55    19    20    1
    56   166   167    1
    57    21    22    1
    58    26    25    1
    59    26    27   ar
    60   168   167   ar
    61    78    76    1
    62    25    22    1
    63    91    90    1
    64   151   150   ar
    65   151   149   ar
    66   150   148   ar
    67    22    23    1
    68   167   169   ar
    69    83    80    1
    70    73    76    1
    71    73    72    1
    72    73    74    1
    73    29    27   ar
    74    77    76    1
    75   157   159   ar
    76   157   158   ar
    77    79    74   am
    78    79    80    1
    79   159   161   ar
    80    74    75    2
    81   149   147   ar
    82   148   145   ar
    83    90    87    1
    84    80    81    1
    85   158   160   ar
    86    86    81   am
    87    86    87    1
    88    23    24    2
    89    50    48   ar
    90    70    71   ar
    91    70    68   ar
    92    81    82    2
    93   161   160   ar
    94    87    88    1
    95    71    69   ar
    96   147   145   ar
    97   147   146   ar
    98    49    48   ar
    99   145   143   ar
   100    48    47    1
   101    68    66   ar
   102   102   101    1
   103   101   100    1
   104    64    63    2
   105    38    40   ar
   106    38    36   ar
   107    40    41   ar
   108   100    99    1
   109    47    44    1
   110    88    95   am
   111    88    89    2
   112   146   144   ar
   113    63    62    1
   114    69    67   ar
   115    31    32    1
   116   143   142    1
   117   143   144   ar
   118    95    96    1
   119    35    36    1
   120    35    32    1
   121    66    67   ar
   122    66    65    1
   123    36    37   ar
   124   142   139    1
   125    99    96    1
   126    41    42    1
   127    41    39   ar
   128    43    44    1
   129    43    33   am
   130    32    33    1
   131    65    62    1
   132   137   135   ar
   133    44    45    1
   134    96    97    1
   135    46    45    2
   136    62    61    1
   137    33    34    2
   138    37    39   ar
   139   141   140    2
   140   139   140    1
   141   139   138    1
   142   113   111    1
   143    97    98    2
   144   135   136   ar
   145   135   134    1
   146    60    58   ar
   147    60    59   ar
   148   120   119   ar
   149   134   133    1
   150    58    56   ar
   151   111   112    1
   152   111   110    2
   153    59    57   ar
   154   128   126    1
   155   121   119   ar
   156   119   118    1
   157    57    56   ar
   158    56    55    1
   159   110   109    1
   160   127   126    1
   161   133   130    1
   162   126   123    1
   163    55    52    1
   164   122   123    1
   165   122   116   am
   166   118   115    1
   167   123   124    1
   168   109   108    1
   169   131   132    2
   170   131   130    1
   171   130   129    1
   172   115   116    1
   173   115   114    1
   174   108   107    1
   175   116   117    2
   176    54    53    2
   177    53    52    1
   178    52    51    1
   179   124   125    2
   180   107   104    1
   181   106   105    2
   182   105   104    1
   183   104   103    1
