@<TRIPOS>MOLECULE
tmp/1j0jA00.pdb
 171 165 0 0 0
SMALL
GASTEIGER

@<TRIPOS>ATOM
      1  N         22.8030   -1.4770  -68.0530 N.3   205  HIS205     -0.1241
      2  CA        22.3970   -1.1970  -66.6740 C.3   205  HIS205      0.1621
      3  C         22.6180    0.2800  -66.3440 C.2   205  HIS205      0.2264
      4  O         21.9630    0.8350  -65.4560 O.2   205  HIS205     -0.2867
      5  CB        23.1410   -2.1070  -65.6860 C.3   205  HIS205      0.0745
      6  CG        24.6240   -2.1490  -65.8850 C.ar  205  HIS205      0.0817
      7  ND1       25.4520   -1.1000  -65.5480 N.ar  205  HIS205     -0.2268
      8  CD2       25.4300   -3.1290  -66.3590 C.ar  205  HIS205      0.1154
      9  CE1       26.7050   -1.4340  -65.8020 C.ar  205  HIS205      0.1986
     10  NE2       26.7180   -2.6610  -66.2950 N.ar  205  HIS205     -0.2212
     11  N         25.1160    1.8290  -64.9380 N.3   207  TYR207     -0.1241
     12  CA        25.7760    2.1760  -63.6850 C.3   207  TYR207      0.1605
     13  C         27.1530    2.7770  -63.9250 C.2   207  TYR207      0.2264
     14  O         27.8240    3.2170  -62.9930 O.2   207  TYR207     -0.2867
     15  CB        25.8800    0.9540  -62.7760 C.3   207  TYR207      0.0534
     16  CG        24.6370    0.7180  -61.9600 C.ar  207  TYR207     -0.0201
     17  CD1       24.3270    1.5410  -60.8830 C.ar  207  TYR207     -0.0009
     18  CD2       23.7660   -0.3230  -62.2690 C.ar  207  TYR207     -0.0009
     19  CE1       23.1760    1.3360  -60.1270 C.ar  207  TYR207      0.0417
     20  CE2       22.6100   -0.5430  -61.5260 C.ar  207  TYR207      0.0417
     21  CZ        22.3190    0.2910  -60.4560 C.ar  207  TYR207      0.1957
     22  OH        21.1650    0.0950  -59.7330 O.3   207  TYR207     -0.2866
     23  N         31.0840    6.3650  -58.4310 N.3   247  HIS247     -0.1241
     24  CA        31.9780    6.2170  -59.5680 C.3   247  HIS247      0.1621
     25  C         31.3500    6.6660  -60.8740 C.2   247  HIS247      0.2264
     26  O         30.1250    6.7100  -61.0130 O.2   247  HIS247     -0.2867
     27  CB        32.3890    4.7580  -59.7010 C.3   247  HIS247      0.0745
     28  CG        31.2450    3.8100  -59.5540 C.ar  247  HIS247      0.0817
     29  ND1       30.6890    3.5070  -58.3320 N.ar  247  HIS247     -0.2268
     30  CD2       30.5020    3.1580  -60.4770 C.ar  247  HIS247      0.1154
     31  CE1       29.6500    2.7120  -58.5090 C.ar  247  HIS247      0.1986
     32  NE2       29.5140    2.4860  -59.8010 N.ar  247  HIS247     -0.2212
     33  N         35.2210    0.8350  -58.7060 N.3   289  PHE289     -0.1241
     34  CA        34.1650    0.1650  -57.9710 C.3   289  PHE289      0.1605
     35  C         34.6470   -1.2650  -57.9920 C.2   289  PHE289      0.2264
     36  O         34.8360   -1.8290  -59.0690 O.2   289  PHE289     -0.2867
     37  CB        32.8240    0.2040  -58.6830 C.3   289  PHE289      0.0534
     38  CG        31.8510   -0.7910  -58.1350 C.ar  289  PHE289     -0.0203
     39  CD1       31.2980   -0.6160  -56.8690 C.ar  289  PHE289     -0.0042
     40  CD2       31.5450   -1.9480  -58.8410 C.ar  289  PHE289     -0.0042
     41  CE1       30.4580   -1.5840  -56.3120 C.ar  289  PHE289     -0.0003
     42  CE2       30.7070   -2.9230  -58.2940 C.ar  289  PHE289     -0.0003
     43  CZ        30.1640   -2.7410  -57.0280 C.ar  289  PHE289     -0.0000
     44  N         36.5620   -3.0810  -61.1600 N.3   292  VAL292     -0.1245
     45  CA        36.0930   -2.8120  -62.5100 C.3   292  VAL292      0.1561
     46  C         36.8470   -1.6170  -63.0750 C.2   292  VAL292      0.2260
     47  O         36.7030   -0.4940  -62.5960 O.2   292  VAL292     -0.2867
     48  CB        34.5890   -2.4980  -62.5160 C.3   292  VAL292      0.0252
     49  CG1       34.0930   -2.3690  -63.9520 C.3   292  VAL292      0.0019
     50  CG2       33.8290   -3.5910  -61.7560 C.3   292  VAL292      0.0019
     51  N         34.8200    1.4930  -64.1410 N.3   295  MET295     -0.1245
     52  CA        34.1570    2.3240  -63.1490 C.3   295  MET295      0.1570
     53  C         35.1360    2.9920  -62.1860 C.2   295  MET295      0.2261
     54  O         35.2760    2.5650  -61.0390 O.2   295  MET295     -0.2867
     55  CB        33.1600    1.4780  -62.3520 C.3   295  MET295      0.0387
     56  CG        32.2920    0.5830  -63.2120 C.3   295  MET295      0.0595
     57  SD        30.9970   -0.2600  -62.2890 S.3   295  MET295     -0.1393
     58  CE        29.5980    0.1300  -63.2830 C.3   295  MET295      0.0692
     59  N         18.1630    7.4480  -54.9600 N.3   326  ARG326     -0.1245
     60  CA        18.6370    6.1590  -54.4850 C.3   326  ARG326      0.1563
     61  C         20.1380    6.2310  -54.6960 C.2   326  ARG326      0.2260
     62  O         20.6280    6.0890  -55.8130 O.2   326  ARG326     -0.2867
     63  CB        18.0140    5.0250  -55.3060 C.3   326  ARG326      0.0307
     64  CG        18.3420    3.6150  -54.8310 C.3   326  ARG326      0.0489
     65  CD        19.6940    3.1530  -55.3540 C.3   326  ARG326      0.2205
     66  NE        19.9270    1.7220  -55.1590 N.pl3 326  ARG326     -0.0865
     67  CZ        20.9980    1.0770  -55.6140 C.cat 326  ARG326      0.5346
     68  NH1       21.9340    1.7320  -56.2860 N.pl3 326  ARG326      0.1354
     69  NH2       21.1330   -0.2270  -55.4080 N.pl3 326  ARG326      0.1354
     70  N         23.5180    4.9650  -54.9030 N.3   328  ASP328     -0.1225
     71  CA        24.1820    3.7120  -55.2030 C.3   328  ASP328      0.1805
     72  C         25.5230    3.6380  -54.4800 C.2   328  ASP328      0.2597
     73  O         26.2800    4.6060  -54.4940 O.2   328  ASP328     -0.2718
     74  CB        24.3480    3.6410  -56.7260 C.3   328  ASP328      0.1424
     75  CG        25.1210    2.4320  -57.1890 C.2   328  ASP328      0.3668
     76  OD1       24.7310    1.3010  -56.8340 O.co2 328  ASP328     -0.2456
     77  OD2       26.1140    2.6230  -57.9270 O.co2 328  ASP328     -0.2456
     78  N         25.8060    2.5000  -53.8410 N.am  329  VAL329     -0.1980
     79  CA        27.0610    2.3050  -53.1090 C.3   329  VAL329      0.1595
     80  C         27.3250    3.4990  -52.1810 C.2   329  VAL329      0.2287
     81  O         28.4600    3.9360  -52.0210 O.2   329  VAL329     -0.2864
     82  CB        28.2580    2.1830  -54.0780 C.3   329  VAL329      0.0276
     83  CG1       29.3900    1.4270  -53.4170 C.3   329  VAL329      0.0022
     84  CG2       27.8320    1.5010  -55.3630 C.3   329  VAL329      0.0022
     85  N         27.5910    3.9290  -49.0260 N.3   331  ASN331     -0.1225
     86  CA        28.5120    3.7740  -47.9060 C.3   331  ASN331      0.1785
     87  C         29.9830    3.9740  -48.2240 C.2   331  ASN331      0.2597
     88  O         30.8120    4.0310  -47.3140 O.2   331  ASN331     -0.2718
     89  CB        28.3300    2.3990  -47.2720 C.3   331  ASN331      0.1169
     90  CG        28.5710    1.2780  -48.2510 C.2   331  ASN331      0.2627
     91  OD1       28.7980    0.1350  -47.8520 O.2   331  ASN331     -0.2716
     92  ND2       28.5210    1.5930  -49.5420 N.am  331  ASN331     -0.0877
     93  N         30.3130    4.0850  -49.5050 N.am  332  GLU332     -0.1979
     94  CA        31.7070    4.2540  -49.8990 C.3   332  GLU332      0.1602
     95  C         32.1030    5.7030  -50.1390 C.2   332  GLU332      0.2287
     96  O         33.2480    5.9970  -50.4790 O.2   332  GLU332     -0.2864
     97  CB        32.0140    3.3630  -51.1150 C.3   332  GLU332      0.0415
     98  CG        32.1720    1.9010  -50.6900 C.3   332  GLU332      0.1163
     99  CD        32.4040    0.9200  -51.8150 C.2   332  GLU332      0.3649
    100  OE1       33.2040    1.2030  -52.7280 O.co2 332  GLU332     -0.2457
    101  OE2       31.7960   -0.1610  -51.7680 O.co2 332  GLU332     -0.2457
    102  N         21.9980    3.0940  -50.4410 N.3   357  GLN357     -0.1245
    103  CA        22.1390    1.6670  -50.7050 C.3   357  GLN357      0.1566
    104  C         23.3170    1.1810  -49.8740 C.2   357  GLN357      0.2260
    105  O         24.4680    1.2700  -50.2990 O.2   357  GLN357     -0.2867
    106  CB        22.4290    1.4110  -52.1830 C.3   357  GLN357      0.0367
    107  CG        22.2880   -0.0350  -52.5640 C.3   357  GLN357      0.0905
    108  CD        23.3590   -0.5000  -53.5110 C.2   357  GLN357      0.2608
    109  OE1       24.1290    0.3000  -54.0350 O.2   357  GLN357     -0.2717
    110  NE2       23.4180   -1.8050  -53.7400 N.am  357  GLN357     -0.0878
    111  N         24.5010   -2.1670  -47.8750 N.3   359  TRP359     -0.1227
    112  CA        24.2850   -3.6020  -47.6850 C.3   359  TRP359      0.1737
    113  C         24.6810   -4.1460  -46.3230 C.2   359  TRP359      0.2595
    114  O         25.1500   -5.2780  -46.2310 O.2   359  TRP359     -0.2718
    115  CB        25.0560   -4.3720  -48.7690 C.3   359  TRP359      0.0564
    116  CG        24.3090   -5.5390  -49.3810 C.ar  359  TRP359      0.0003
    117  CD1       23.9000   -6.6830  -48.7510 C.ar  359  TRP359      0.0946
    118  CD2       23.9290   -5.6880  -50.7600 C.ar  359  TRP359      0.0152
    119  NE1       23.2960   -7.5330  -49.6500 N.ar  359  TRP359     -0.2442
    120  CE2       23.3010   -6.9490  -50.8890 C.ar  359  TRP359      0.0810
    121  CE3       24.0610   -4.8780  -51.8980 C.ar  359  TRP359      0.0012
    122  CZ2       22.8090   -7.4190  -52.1120 C.ar  359  TRP359      0.0191
    123  CZ3       23.5700   -5.3460  -53.1100 C.ar  359  TRP359      0.0001
    124  CH2       22.9530   -6.6060  -53.2060 C.ar  359  TRP359      0.0015
    125  N         24.4950   -3.3580  -45.2700 N.am  360  HIS360     -0.1975
    126  CA        24.8600   -3.7980  -43.9290 C.3   360  HIS360      0.1656
    127  C         24.4170   -2.7750  -42.9010 C.2   360  HIS360      0.2291
    128  O         23.8170   -1.7600  -43.2510 O.2   360  HIS360     -0.2864
    129  CB        26.3710   -3.9810  -43.8390 C.3   360  HIS360      0.0771
    130  CG        27.1460   -2.7260  -44.1020 C.ar  360  HIS360      0.0820
    131  ND1       27.0720   -1.6200  -43.2840 N.ar  360  HIS360     -0.2267
    132  CD2       28.0110   -2.4020  -45.0910 C.ar  360  HIS360      0.1154
    133  CE1       27.8580   -0.6700  -43.7570 C.ar  360  HIS360      0.1986
    134  NE2       28.4390   -1.1190  -44.8540 N.ar  360  HIS360     -0.2212
    135  N         17.6560   -6.0370  -58.9240 N.3   423  HIS423     -0.1226
    136  CA        18.4050   -6.4300  -60.1080 C.3   423  HIS423      0.1752
    137  C         19.7790   -6.9920  -59.7510 C.2   423  HIS423      0.2596
    138  O         20.5590   -7.3550  -60.6420 O.2   423  HIS423     -0.2718
    139  CB        18.5760   -5.2250  -61.0220 C.3   423  HIS423      0.0759
    140  CG        19.2970   -4.0910  -60.3740 C.ar  423  HIS423      0.0818
    141  ND1       18.8530   -3.4980  -59.2120 N.ar  423  HIS423     -0.2268
    142  CD2       20.4360   -3.4450  -60.7160 C.ar  423  HIS423      0.1154
    143  CE1       19.6870   -2.5350  -58.8650 C.ar  423  HIS423      0.1986
    144  NE2       20.6560   -2.4810  -59.7610 N.ar  423  HIS423     -0.2212
    145  N         20.0650   -7.0590  -58.4500 N.am  424  ASP424     -0.1974
    146  CA        21.3340   -7.5770  -57.9610 C.3   424  ASP424      0.1709
    147  C         21.2140   -8.9450  -57.3070 C.2   424  ASP424      0.2293
    148  O         22.1440   -9.3790  -56.6350 O.2   424  ASP424     -0.2864
    149  CB        21.9570   -6.6210  -56.9440 C.3   424  ASP424      0.1436
    150  CG        22.1550   -5.2350  -57.4940 C.2   424  ASP424      0.3671
    151  OD1       22.6340   -5.1160  -58.6390 O.co2 424  ASP424     -0.2456
    152  OD2       21.8420   -4.2600  -56.7800 O.co2 424  ASP424     -0.2456
    153  N         21.9260  -11.9210  -61.2510 N.3   468  ASP468     -0.1239
    154  CA        22.4070  -11.1030  -62.3570 C.3   468  ASP468      0.1674
    155  C         23.2070  -11.9370  -63.3520 C.2   468  ASP468      0.2266
    156  O         24.1660  -12.6080  -62.9710 O.2   468  ASP468     -0.2867
    157  CB        23.2880   -9.9840  -61.7980 C.3   468  ASP468      0.1410
    158  CG        23.6850   -8.9670  -62.8480 C.2   468  ASP468      0.3668
    159  OD1       24.5910   -8.1570  -62.5670 O.co2 468  ASP468     -0.2456
    160  OD2       23.0880   -8.9710  -63.9450 O.co2 468  ASP468     -0.2456
    161  N         17.2340  -10.1330  -64.6880 N.3   472  ARG472     -0.1245
    162  CA        16.8580   -8.9680  -65.4740 C.3   472  ARG472      0.1563
    163  C         16.1510   -9.2860  -66.7860 C.2   472  ARG472      0.2260
    164  O         16.2930   -8.5470  -67.7610 O.2   472  ARG472     -0.2867
    165  CB        18.1010   -8.1130  -65.7460 C.3   472  ARG472      0.0307
    166  CG        18.6890   -7.5080  -64.4980 C.3   472  ARG472      0.0489
    167  CD        20.0900   -7.0080  -64.7300 C.3   472  ARG472      0.2205
    168  NE        20.6730   -6.5180  -63.4850 N.pl3 472  ARG472     -0.0865
    169  CZ        21.9170   -6.0680  -63.3610 C.cat 472  ARG472      0.5346
    170  NH1       22.7280   -6.0410  -64.4080 N.pl3 472  ARG472      0.1354
    171  NH2       22.3490   -5.6410  -62.1850 N.pl3 472  ARG472      0.1354
@<TRIPOS>BOND
     1     1     2    1
     2   164   163    2
     3   163   162    1
     4     2     3    1
     5     2     5    1
     6     8    10   ar
     7     8     6   ar
     8     3     4    2
     9    10     9   ar
    10     6     5    1
    11     6     7   ar
    12     9     7   ar
    13   165   162    1
    14   165   166    1
    15   162   161    1
    16    11    12    1
    17   167   166    1
    18   167   168    1
    19   170   169    1
    20    51    52    1
    21    49    48    1
    22   160   158   ar
    23    13    12    1
    24    13    14    2
    25    12    15    1
    26   168   169    2
    27   169   171    1
    28   155   156    2
    29   155   154    1
    30    58    57    1
    31    56    55    1
    32    56    57    1
    33    52    55    1
    34    52    53    1
    35    46    47    2
    36    46    45    1
    37   158   159   ar
    38   158   157    1
    39    15    16    1
    40    48    45    1
    41    48    50    1
    42    45    44    1
    43   154   157    1
    44   154   153    1
    45    18    16   ar
    46    18    20   ar
    47    53    54    2
    48    16    17   ar
    49    20    21   ar
    50   139   140    1
    51   139   136    1
    52    26    25    2
    53    17    19   ar
    54    25    24    1
    55   142   140   ar
    56   142   144   ar
    57   138   137    2
    58    30    32   ar
    59    30    28   ar
    60    21    19   ar
    61    21    22    1
    62   140   141   ar
    63   136   137    1
    64   136   135    1
    65    32    31   ar
    66   144   143   ar
    67   137   145   am
    68    27    24    1
    69    27    28    1
    70    24    23    1
    71    28    29   ar
    72   141   143   ar
    73    36    35    2
    74    40    42   ar
    75    40    38   ar
    76    33    34    1
    77    37    38    1
    78    37    34    1
    79   151   150   ar
    80    31    29   ar
    81   145   146    1
    82    42    43   ar
    83    38    39   ar
    84    35    34    1
    85   146   147    1
    86   146   149    1
    87    77    75   ar
    88   150   149    1
    89   150   152   ar
    90   147   148    2
    91    75    76   ar
    92    75    74    1
    93    43    41   ar
    94    39    41   ar
    95    74    71    1
    96    68    67    1
    97    62    61    2
    98    67    69    1
    99    67    66    2
   100    84    82    1
   101    65    66    1
   102    65    64    1
   103    63    64    1
   104    63    60    1
   105    71    70    1
   106    71    72    1
   107    59    60    1
   108    61    60    1
   109    73    72    2
   110    72    78   am
   111    82    83    1
   112    82    79    1
   113   109   108    2
   114    78    79    1
   115   110   108   am
   116   108   107    1
   117   124   123   ar
   118   124   122   ar
   119   123   121   ar
   120    79    80    1
   121   100    99   ar
   122   107   106    1
   123   106   103    1
   124    80    81    2
   125   122   120   ar
   126   121   118   ar
   127    99   101   ar
   128    99    98    1
   129    97    98    1
   130    97    94    1
   131   120   118   ar
   132   120   119   ar
   133   118   116   ar
   134   103   102    1
   135   103   104    1
   136    96    95    2
   137   105   104    2
   138    95    94    1
   139    94    93    1
   140   119   117   ar
   141    92    90   am
   142    93    87   am
   143   116   115    1
   144   116   117   ar
   145    85    86    1
   146   115   112    1
   147    90    91    2
   148    90    89    1
   149    87    86    1
   150    87    88    2
   151    86    89    1
   152   111   112    1
   153   112   113    1
   154   113   114    2
   155   113   125   am
   156   125   126    1
   157   132   134   ar
   158   132   130   ar
   159   134   133   ar
   160   130   129    1
   161   130   131   ar
   162   126   129    1
   163   126   127    1
   164   133   131   ar
   165   128   127    2
