@<TRIPOS>MOLECULE
tmp/1j0kB00.pdb
 178 171 0 0 0
SMALL
GASTEIGER

@<TRIPOS>ATOM
      1  N         32.8180  -35.7520   11.6080 N.3   205  HIS205     -0.1241
      2  CA        33.2200  -34.5820   12.3710 C.3   205  HIS205      0.1621
      3  C         33.0110  -34.8090   13.8590 C.2   205  HIS205      0.2264
      4  O         33.7100  -34.2300   14.6980 O.2   205  HIS205     -0.2867
      5  CB        32.4450  -33.3630   11.9050 C.3   205  HIS205      0.0745
      6  CG        30.9700  -33.5830   11.8060 C.ar  205  HIS205      0.0817
      7  ND1       30.1810  -33.8400   12.9040 N.ar  205  HIS205     -0.2268
      8  CD2       30.1340  -33.5300   10.7430 C.ar  205  HIS205      0.1154
      9  CE1       28.9180  -33.9320   12.5220 C.ar  205  HIS205      0.1986
     10  NE2       28.8620  -33.7470   11.2160 N.ar  205  HIS205     -0.2212
     11  N         30.3910  -34.0150   15.7150 N.3   207  TYR207     -0.1241
     12  CA        29.7180  -32.9650   16.4540 C.3   207  TYR207      0.1605
     13  C         28.3420  -33.4070   16.9140 C.2   207  TYR207      0.2264
     14  O         27.6030  -32.6420   17.5290 O.2   207  TYR207     -0.2867
     15  CB        29.6440  -31.6960   15.6210 C.3   207  TYR207      0.0534
     16  CG        30.9330  -30.9340   15.6960 C.ar  207  TYR207     -0.0201
     17  CD1       31.2550  -30.1780   16.8270 C.ar  207  TYR207     -0.0009
     18  CD2       31.8600  -31.0030   14.6570 C.ar  207  TYR207     -0.0009
     19  CE1       32.4710  -29.5060   16.9140 C.ar  207  TYR207      0.0417
     20  CE2       33.0820  -30.3390   14.7300 C.ar  207  TYR207      0.0417
     21  CZ        33.3780  -29.5930   15.8560 C.ar  207  TYR207      0.1957
     22  OH        34.5770  -28.9210   15.8900 O.3   207  TYR207     -0.2866
     23  N         31.0320  -31.0100   23.0330 N.3   244  VAL244     -0.1245
     24  CA        29.7640  -30.5840   22.4690 C.3   244  VAL244      0.1561
     25  C         28.6500  -30.8370   23.4720 C.2   244  VAL244      0.2260
     26  O         27.9630  -31.8560   23.4100 O.2   244  VAL244     -0.2867
     27  CB        29.4520  -31.3270   21.1630 C.3   244  VAL244      0.0252
     28  CG1       28.1340  -30.8400   20.5980 C.3   244  VAL244      0.0019
     29  CG2       30.5640  -31.0900   20.1630 C.3   244  VAL244      0.0019
     30  N         24.2380  -29.8910   22.6800 N.3   247  HIS247     -0.1241
     31  CA        23.3830  -30.9520   22.1590 C.3   247  HIS247      0.1621
     32  C         24.0990  -32.2780   21.9760 C.2   247  HIS247      0.2264
     33  O         25.3330  -32.3520   21.9920 O.2   247  HIS247     -0.2867
     34  CB        22.8470  -30.5430   20.7990 C.3   247  HIS247      0.0745
     35  CG        23.9190  -30.1380   19.8310 C.ar  247  HIS247      0.0817
     36  ND1       24.6690  -28.9940   19.9920 N.ar  247  HIS247     -0.2268
     37  CD2       24.3490  -30.7100   18.6810 C.ar  247  HIS247      0.1154
     38  CE1       25.5110  -28.8750   18.9810 C.ar  247  HIS247      0.1986
     39  NE2       25.3360  -29.9010   18.1700 N.ar  247  HIS247     -0.2212
     40  N         20.1790  -28.1410   17.5360 N.3   289  PHE289     -0.1241
     41  CA        21.1980  -27.1840   17.1450 C.3   289  PHE289      0.1605
     42  C         20.6080  -26.6610   15.8450 C.2   289  PHE289      0.2264
     43  O         20.3620  -27.4280   14.9200 O.2   289  PHE289     -0.2867
     44  CB        22.5420  -27.8510   16.8610 C.3   289  PHE289      0.0534
     45  CG        23.4760  -26.9870   16.0510 C.ar  289  PHE289     -0.0203
     46  CD1       23.9350  -25.7720   16.5470 C.ar  289  PHE289     -0.0042
     47  CD2       23.8680  -27.3750   14.7740 C.ar  289  PHE289     -0.0042
     48  CE1       24.7660  -24.9520   15.7850 C.ar  289  PHE289     -0.0003
     49  CE2       24.6970  -26.5650   14.0040 C.ar  289  PHE289     -0.0003
     50  CZ        25.1460  -25.3490   14.5170 C.ar  289  PHE289     -0.0000
     51  N         18.7590  -28.9490   12.9200 N.3   292  VAL292     -0.1245
     52  CA        19.3450  -30.2330   12.5810 C.3   292  VAL292      0.1561
     53  C         18.6920  -31.3080   13.4410 C.2   292  VAL292      0.2260
     54  O         18.8550  -31.3310   14.6640 O.2   292  VAL292     -0.2867
     55  CB        20.8580  -30.2180   12.8480 C.3   292  VAL292      0.0252
     56  CG1       21.4490  -31.5760   12.5330 C.3   292  VAL292      0.0019
     57  CG2       21.5120  -29.1330   12.0250 C.3   292  VAL292      0.0019
     58  N         20.6890  -33.5050   15.9030 N.3   295  MET295     -0.1245
     59  CA        21.3180  -32.7990   17.0120 C.3   295  MET295      0.1570
     60  C         20.3010  -32.1720   17.9490 C.2   295  MET295      0.2261
     61  O         20.1060  -30.9500   17.9400 O.2   295  MET295     -0.2867
     62  CB        22.2600  -31.7190   16.4730 C.3   295  MET295      0.0387
     63  CG        23.3820  -32.2640   15.5890 C.3   295  MET295      0.0595
     64  SD        24.4380  -30.9900   14.8570 S.3   295  MET295     -0.1393
     65  CE        26.0180  -31.6710   15.1040 C.3   295  MET295      0.0692
     66  N         37.2150  -26.9380   25.0630 N.3   326  ARG326     -0.1245
     67  CA        36.7470  -25.9940   24.0590 C.3   326  ARG326      0.1563
     68  C         35.2840  -26.4130   24.0090 C.2   326  ARG326      0.2260
     69  O         34.9800  -27.5670   23.7210 O.2   326  ARG326     -0.2867
     70  CB        37.4790  -26.2690   22.7330 C.3   326  ARG326      0.0307
     71  CG        37.2160  -25.2990   21.5980 C.3   326  ARG326      0.0489
     72  CD        35.9380  -25.6680   20.8750 C.3   326  ARG326      0.2205
     73  NE        35.7360  -24.9190   19.6390 N.pl3 326  ARG326     -0.0865
     74  CZ        34.7400  -25.1550   18.7920 C.cat 326  ARG326      0.5346
     75  NH1       33.8660  -26.1110   19.0590 N.pl3 326  ARG326      0.1354
     76  NH2       34.6250  -24.4540   17.6730 N.pl3 326  ARG326      0.1354
     77  N         31.8100  -25.8540   22.2000 N.3   328  ASP328     -0.1225
     78  CA        31.0420  -25.1830   21.1640 C.3   328  ASP328      0.1805
     79  C         29.5890  -24.8640   21.4910 C.2   328  ASP328      0.2597
     80  O         28.9880  -25.4390   22.3950 O.2   328  ASP328     -0.2718
     81  CB        31.1380  -25.9520   19.8410 C.3   328  ASP328      0.1424
     82  CG        31.3830  -27.4250   20.0400 C.2   328  ASP328      0.3668
     83  OD1       30.4600  -28.1220   20.5080 O.co2 328  ASP328     -0.2456
     84  OD2       32.5010  -27.8850   19.7290 O.co2 328  ASP328     -0.2456
     85  N         29.0530  -23.9030   20.7480 N.am  329  VAL329     -0.1980
     86  CA        27.6850  -23.4500   20.9080 C.3   329  VAL329      0.1595
     87  C         27.4110  -23.1610   22.3820 C.2   329  VAL329      0.2287
     88  O         26.2630  -23.1330   22.8290 O.2   329  VAL329     -0.2864
     89  CB        26.7130  -24.5110   20.3670 C.3   329  VAL329      0.0276
     90  CG1       25.3840  -23.8650   20.0060 C.3   329  VAL329      0.0022
     91  CG2       27.3310  -25.1940   19.1540 C.3   329  VAL329      0.0022
     92  N         27.4470  -20.4710   24.0630 N.3   331  ASN331     -0.1225
     93  CA        26.6020  -19.3130   24.3230 C.3   331  ASN331      0.1785
     94  C         25.1430  -19.7040   24.4080 C.2   331  ASN331      0.2597
     95  O         24.3190  -18.8910   24.8160 O.2   331  ASN331     -0.2718
     96  CB        26.7420  -18.2740   23.2260 C.3   331  ASN331      0.1169
     97  CG        26.2590  -18.7890   21.8970 C.2   331  ASN331      0.2627
     98  OD1       25.8970  -18.0160   20.9990 O.2   331  ASN331     -0.2716
     99  ND2       26.2560  -20.1100   21.7530 N.am  331  ASN331     -0.0877
    100  N         24.8080  -20.9310   24.0170 N.am  332  GLU332     -0.1979
    101  CA        23.4130  -21.3400   24.0860 C.3   332  GLU332      0.1602
    102  C         23.0770  -22.1600   25.3270 C.2   332  GLU332      0.2287
    103  O         21.9350  -22.5820   25.5100 O.2   332  GLU332     -0.2864
    104  CB        23.0030  -22.0720   22.8100 C.3   332  GLU332      0.0415
    105  CG        23.4530  -21.3020   21.5860 C.3   332  GLU332      0.1163
    106  CD        22.7200  -21.6490   20.2980 C.2   332  GLU332      0.3649
    107  OE1       22.2700  -22.8170   20.1320 O.co2 332  GLU332     -0.2457
    108  OE2       22.6220  -20.7290   19.4400 O.co2 332  GLU332     -0.2457
    109  N         32.9890  -21.4900   23.0210 N.3   357  GLN357     -0.1245
    110  CA        32.8360  -20.9920   21.6710 C.3   357  GLN357      0.1566
    111  C         31.6810  -20.0290   21.6580 C.2   357  GLN357      0.2260
    112  O         30.5460  -20.4190   21.9020 O.2   357  GLN357     -0.2867
    113  CB        32.5250  -22.0950   20.6680 C.3   357  GLN357      0.0367
    114  CG        32.1610  -21.5190   19.3070 C.3   357  GLN357      0.0905
    115  CD        31.5810  -22.5380   18.3610 C.2   357  GLN357      0.2608
    116  OE1       30.6760  -23.2810   18.7230 O.2   357  GLN357     -0.2717
    117  NE2       32.0850  -22.5680   17.1310 N.am  357  GLN357     -0.0878
    118  N         30.1720  -16.7750   19.1940 N.3   359  TRP359     -0.1227
    119  CA        30.3560  -15.9820   17.9780 C.3   359  TRP359      0.1737
    120  C         29.7870  -14.5560   18.0590 C.2   359  TRP359      0.2595
    121  O         29.1240  -14.0850   17.1310 O.2   359  TRP359     -0.2718
    122  CB        29.7620  -16.7110   16.7560 C.3   359  TRP359      0.0564
    123  CG        30.5990  -16.5900   15.4730 C.ar  359  TRP359      0.0003
    124  CD1       30.9310  -15.4390   14.8040 C.ar  359  TRP359      0.0946
    125  CD2       31.2120  -17.6620   14.7390 C.ar  359  TRP359      0.0152
    126  NE1       31.7140  -15.7290   13.7030 N.ar  359  TRP359     -0.2442
    127  CE2       31.9020  -17.0840   13.6410 C.ar  359  TRP359      0.0810
    128  CE3       31.2490  -19.0520   14.9030 C.ar  359  TRP359      0.0012
    129  CZ2       32.6190  -17.8520   12.7130 C.ar  359  TRP359      0.0191
    130  CZ3       31.9620  -19.8160   13.9810 C.ar  359  TRP359      0.0001
    131  CH2       32.6380  -19.2120   12.9000 C.ar  359  TRP359      0.0015
    132  N         30.0590  -13.8720   19.1670 N.am  360  HIS360     -0.1975
    133  CA        29.6040  -12.5000   19.3760 C.3   360  HIS360      0.1656
    134  C         30.1340  -11.9890   20.7040 C.2   360  HIS360      0.2291
    135  O         30.7710  -12.7350   21.4590 O.2   360  HIS360     -0.2864
    136  CB        28.0700  -12.4100   19.3520 C.3   360  HIS360      0.0771
    137  CG        27.3850  -13.4330   20.2070 C.ar  360  HIS360      0.0820
    138  ND1       27.4870  -13.4470   21.5830 N.ar  360  HIS360     -0.2267
    139  CD2       26.6270  -14.5070   19.8760 C.ar  360  HIS360      0.1154
    140  CE1       26.8280  -14.4890   22.0610 C.ar  360  HIS360      0.1986
    141  NE2       26.2980  -15.1480   21.0460 N.ar  360  HIS360     -0.2212
    142  N         37.8160  -25.2150   10.8410 N.3   423  HIS423     -0.1226
    143  CA        37.1650  -26.2330   10.0480 C.3   423  HIS423      0.1752
    144  C         35.8200  -25.7260    9.5540 C.2   423  HIS423      0.2596
    145  O         35.2000  -26.3590    8.7020 O.2   423  HIS423     -0.2718
    146  CB        36.9670  -27.4840   10.8890 C.3   423  HIS423      0.0759
    147  CG        36.1720  -27.2380   12.1320 C.ar  423  HIS423      0.0818
    148  ND1       36.4730  -26.2210   13.0090 N.ar  423  HIS423     -0.2268
    149  CD2       35.0680  -27.8460   12.6250 C.ar  423  HIS423      0.1154
    150  CE1       35.5860  -26.2090   13.9870 C.ar  423  HIS423      0.1986
    151  NE2       34.7210  -27.1840   13.7770 N.ar  423  HIS423     -0.2212
    152  N         35.3690  -24.5880   10.0750 N.am  424  ASP424     -0.1974
    153  CA        34.0740  -24.0460    9.6670 C.3   424  ASP424      0.1709
    154  C         34.2050  -22.8470    8.7320 C.2   424  ASP424      0.2293
    155  O         33.2150  -22.2430    8.3230 O.2   424  ASP424     -0.2864
    156  CB        33.2440  -23.6710   10.9100 C.3   424  ASP424      0.1436
    157  CG        32.8650  -24.8910   11.7650 C.2   424  ASP424      0.3671
    158  OD1       32.3430  -25.8840   11.2100 O.co2 424  ASP424     -0.2456
    159  OD2       33.0780  -24.8520   12.9940 O.co2 424  ASP424     -0.2456
    160  N         33.7140  -25.5280    4.6750 N.3   468  ASP468     -0.1239
    161  CA        33.1610  -26.8360    5.0340 C.3   468  ASP468      0.1674
    162  C         32.3080  -27.4470    3.9260 C.2   468  ASP468      0.2266
    163  O         31.3690  -26.8170    3.4400 O.2   468  ASP468     -0.2867
    164  CB        32.3210  -26.7020    6.3120 C.3   468  ASP468      0.1410
    165  CG        31.7330  -28.0260    6.7780 C.2   468  ASP468      0.3668
    166  OD1       30.9440  -28.0060    7.7460 O.co2 468  ASP468     -0.2456
    167  OD2       32.0550  -29.0830    6.1910 O.co2 468  ASP468     -0.2456
    168  N         38.3620  -29.2040    4.9240 N.3   472  ARG472     -0.1245
    169  CA        38.7390  -30.4320    5.6220 C.3   472  ARG472      0.1563
    170  C         39.4490  -31.5000    4.7880 C.2   472  ARG472      0.2260
    171  O         39.2640  -32.6950    5.0100 O.2   472  ARG472     -0.2867
    172  CB        37.4960  -31.0240    6.2870 C.3   472  ARG472      0.0307
    173  CG        36.8400  -29.9970    7.1890 C.3   472  ARG472      0.0489
    174  CD        35.5940  -30.4720    7.9060 C.3   472  ARG472      0.2205
    175  NE        34.9330  -29.3480    8.5660 N.pl3 472  ARG472     -0.0865
    176  CZ        33.7520  -29.4310    9.1620 C.cat 472  ARG472      0.5346
    177  NH1       33.1130  -30.5910    9.1780 N.pl3 472  ARG472      0.1354
    178  NH2       33.2060  -28.3610    9.7280 N.pl3 472  ARG472      0.1354
@<TRIPOS>BOND
     1   163   162    2
     2   162   161    1
     3   160   161    1
     4   170   171    2
     5   170   169    1
     6   168   169    1
     7   161   164    1
     8   169   172    1
     9   167   165   ar
    10   172   173    1
    11   164   165    1
    12   165   166   ar
    13   173   174    1
    14   174   175    1
    15   155   154    2
    16   175   176    2
    17   145   144    2
    18   154   153    1
    19   176   177    1
    20   176   178    1
    21   144   143    1
    22   144   152   am
    23   153   152    1
    24   153   156    1
    25   143   142    1
    26   143   146    1
    27     8    10   ar
    28     8     6   ar
    29   146   147    1
    30   156   157    1
    31   158   157   ar
    32    10     9   ar
    33     1     2    1
    34   157   159   ar
    35     6     5    1
    36     6     7   ar
    37     5     2    1
    38    57    55    1
    39   147   149   ar
    40   147   148   ar
    41     2     3    1
    42     9     7   ar
    43    56    55    1
    44    52    55    1
    45    52    51    1
    46    52    53    1
    47   149   151   ar
    48   129   131   ar
    49   129   127   ar
    50   131   130   ar
    51   148   150   ar
    52    53    54    2
    53   127   126   ar
    54   127   125   ar
    55   126   124   ar
    56   151   150   ar
    57     3     4    2
    58   130   128   ar
    59    49    50   ar
    60    49    47   ar
    61    50    48   ar
    62    18    20   ar
    63    18    16   ar
    64    20    21   ar
    65   125   128   ar
    66   125   123   ar
    67    47    45   ar
    68   124   123   ar
    69    64    65    1
    70    64    63    1
    71    43    42    2
    72   123   122    1
    73    63    62    1
    74    15    16    1
    75    15    12    1
    76    16    17   ar
    77    11    12    1
    78    48    46   ar
    79    42    41    1
    80    21    22    1
    81    21    19   ar
    82    58    59    1
    83    45    46   ar
    84    45    44    1
    85    12    13    1
    86    62    59    1
    87   122   119    1
    88    17    19   ar
    89    44    41    1
    90    13    14    2
    91    59    60    1
    92   117   115   am
    93   121   120    2
    94    41    40    1
    95    76    74    1
    96    61    60    2
    97   119   120    1
    98   119   118    1
    99   120   132   am
   100    39    37   ar
   101    39    38   ar
   102   115   116    2
   103   115   114    1
   104    37    35   ar
   105    74    75    1
   106    74    73    2
   107    38    36   ar
   108    91    89    1
   109   132   133    1
   110   114   113    1
   111   136   133    1
   112   136   137    1
   113   133   134    1
   114   108   106   ar
   115    73    72    1
   116    84    82   ar
   117    35    36   ar
   118    35    34    1
   119    81    82    1
   120    81    78    1
   121   139   137   ar
   122   139   141   ar
   123    90    89    1
   124    82    83   ar
   125   107   106   ar
   126    29    27    1
   127   137   138   ar
   128   106   105    1
   129    89    86    1
   130    28    27    1
   131   113   110    1
   132   134   135    2
   133    85    86    1
   134    85    79   am
   135    34    31    1
   136    72    71    1
   137    86    87    1
   138    98    97    2
   139   141   140   ar
   140    27    24    1
   141    78    79    1
   142    78    77    1
   143    79    80    2
   144   138   140   ar
   145   105   104    1
   146    71    70    1
   147   111   110    1
   148   111   112    2
   149   110   109    1
   150    99    97   am
   151    97    96    1
   152    32    33    2
   153    32    31    1
   154    31    30    1
   155    87    88    2
   156    24    23    1
   157    24    25    1
   158    70    67    1
   159   104   101    1
   160    96    93    1
   161    26    25    2
   162    69    68    2
   163    68    67    1
   164   100   101    1
   165   100    94   am
   166    67    66    1
   167    92    93    1
   168   101   102    1
   169    93    94    1
   170    94    95    2
   171   102   103    2
