@<TRIPOS>MOLECULE
tmp/1j0nA00.pdb
 135 131 0 0 0
SMALL
GASTEIGER

@<TRIPOS>ATOM
      1  N          8.6980   59.4240    0.7910 N.3    69  ASN69      -0.1240
      2  CA         8.9010   58.2650    1.6420 C.3    69  ASN69       0.1653
      3  C          7.6180   57.9660    2.3960 C.2    69  ASN69       0.2266
      4  O          7.2360   56.8100    2.5740 O.2    69  ASN69      -0.2867
      5  CB        10.0500   58.5280    2.6170 C.3    69  ASN69       0.1155
      6  CG        10.4350   57.2940    3.4120 C.2    69  ASN69       0.2627
      7  OD1       10.0760   57.1540    4.5840 O.2    69  ASN69      -0.2716
      8  ND2       11.1590   56.3810    2.7690 N.am   69  ASN69      -0.0877
      9  N          4.9240   54.6080    2.5940 N.3    73  GLU73      -0.1245
     10  CA         4.5520   53.9490    3.8430 C.3    73  GLU73       0.1567
     11  C          3.0400   53.8420    3.9180 C.2    73  GLU73       0.2260
     12  O          2.5030   52.7900    4.2700 O.2    73  GLU73      -0.2867
     13  CB         5.0870   54.7240    5.0540 C.3    73  GLU73       0.0388
     14  CG         6.6020   54.5910    5.2330 C.3    73  GLU73       0.1160
     15  CD         7.1440   55.3440    6.4460 C.2    73  GLU73       0.3649
     16  OE1        6.9320   56.5740    6.5320 O.co2  73  GLU73      -0.2457
     17  OE2        7.7930   54.7070    7.3080 O.co2  73  GLU73      -0.2457
     18  N         19.0000   63.2000    0.9010 N.3   121  ASN121     -0.1240
     19  CA        18.5460   62.1050    1.7330 C.3   121  ASN121      0.1653
     20  C         18.4280   60.8660    0.8760 C.2   121  ASN121      0.2266
     21  O         17.3400   60.4650    0.4510 O.2   121  ASN121     -0.2867
     22  CB        17.2270   62.4150    2.4320 C.3   121  ASN121      0.1155
     23  CG        17.3340   62.2460    3.9390 C.2   121  ASN121      0.2627
     24  OD1       17.9430   61.2890    4.4270 O.2   121  ASN121     -0.2716
     25  ND2       16.7470   63.1730    4.6820 N.am  121  ASN121     -0.0877
     26  N         19.0890   58.0600    1.9200 N.3   123  TRP123     -0.1227
     27  CA        18.4780   57.0300    2.7290 C.3   123  TRP123      0.1737
     28  C         17.0730   56.7470    2.2250 C.2   123  TRP123      0.2595
     29  O         16.6760   55.5880    2.0910 O.2   123  TRP123     -0.2718
     30  CB        18.4170   57.4300    4.1980 C.3   123  TRP123      0.0564
     31  CG        18.0580   56.2530    5.0430 C.ar  123  TRP123      0.0003
     32  CD1       18.9160   55.3320    5.5750 C.ar  123  TRP123      0.0946
     33  CD2       16.7370   55.7910    5.3440 C.ar  123  TRP123      0.0152
     34  NE1       18.2110   54.3230    6.1840 N.ar  123  TRP123     -0.2442
     35  CE2       16.8710   54.5790    6.0580 C.ar  123  TRP123      0.0810
     36  CE3       15.4500   56.2830    5.0770 C.ar  123  TRP123      0.0012
     37  CZ2       15.7630   53.8490    6.5130 C.ar  123  TRP123      0.0191
     38  CZ3       14.3480   55.5580    5.5290 C.ar  123  TRP123      0.0001
     39  CH2       14.5140   54.3540    6.2400 C.ar  123  TRP123      0.0015
     40  N         16.3200   57.8060    1.9460 N.am  124  HIS124     -0.1975
     41  CA        14.9590   57.6520    1.4380 C.3   124  HIS124      0.1656
     42  C         14.9580   57.0680    0.0220 C.2   124  HIS124      0.2291
     43  O         14.2560   56.1000   -0.2660 O.2   124  HIS124     -0.2864
     44  CB        14.2470   59.0070    1.4200 C.3   124  HIS124      0.0771
     45  CG        13.8420   59.5010    2.7720 C.ar  124  HIS124      0.0820
     46  ND1       13.8220   60.8410    3.0980 N.ar  124  HIS124     -0.2267
     47  CD2       13.4080   58.8400    3.8720 C.ar  124  HIS124      0.1154
     48  CE1       13.3940   60.9840    4.3390 C.ar  124  HIS124      0.1986
     49  NE2       13.1350   59.7850    4.8310 N.ar  124  HIS124     -0.2212
     50  N         20.4730   47.2520    5.7400 N.3   172  TRP172     -0.1241
     51  CA        19.3040   47.7520    5.0160 C.3   172  TRP172      0.1605
     52  C         19.4400   47.4970    3.5230 C.2   172  TRP172      0.2264
     53  O         18.4590   47.2000    2.8460 O.2   172  TRP172     -0.2867
     54  CB        19.1030   49.2510    5.2390 C.3   172  TRP172      0.0550
     55  CG        18.3240   49.6000    6.4650 C.ar  172  TRP172      0.0003
     56  CD1       17.1540   49.0310    6.8830 C.ar  172  TRP172      0.0946
     57  CD2       18.6070   50.6600    7.3870 C.ar  172  TRP172      0.0152
     58  NE1       16.6870   49.6760    8.0080 N.ar  172  TRP172     -0.2442
     59  CE2       17.5600   50.6800    8.3380 C.ar  172  TRP172      0.0810
     60  CE3       19.6440   51.5990    7.5010 C.ar  172  TRP172      0.0012
     61  CZ2       17.5190   51.6020    9.3910 C.ar  172  TRP172      0.0191
     62  CZ3       19.6040   52.5170    8.5500 C.ar  172  TRP172      0.0001
     63  CH2       18.5460   52.5100    9.4810 C.ar  172  TRP172      0.0015
     64  N         20.4900   52.9250   15.6070 N.3   230  TYR230     -0.1241
     65  CA        20.8340   52.2150   14.3850 C.3   230  TYR230      0.1605
     66  C         21.0060   50.7440   14.7450 C.2   230  TYR230      0.2264
     67  O         20.7300   49.8590   13.9330 O.2   230  TYR230     -0.2867
     68  CB        22.1340   52.7550   13.7940 C.3   230  TYR230      0.0534
     69  CG        21.9860   54.0260   12.9870 C.ar  230  TYR230     -0.0201
     70  CD1       21.3930   54.0090   11.7290 C.ar  230  TYR230     -0.0009
     71  CD2       22.4650   55.2430   13.4700 C.ar  230  TYR230     -0.0009
     72  CE1       21.2820   55.1700   10.9650 C.ar  230  TYR230      0.0417
     73  CE2       22.3570   56.4150   12.7150 C.ar  230  TYR230      0.0417
     74  CZ        21.7650   56.3710   11.4630 C.ar  230  TYR230      0.1957
     75  OH        21.6530   57.5250   10.7170 O.3   230  TYR230     -0.2866
     76  N         17.8120   48.9490   14.5020 N.3   233  SER233     -0.1217
     77  CA        17.4990   48.6250   13.1100 C.3   233  SER233      0.1889
     78  C         18.2830   47.4100   12.6330 C.2   233  SER233      0.2288
     79  O         17.7160   46.4960   12.0390 O.2   233  SER233     -0.2866
     80  CB        17.8200   49.8030   12.1980 C.3   233  SER233      0.2089
     81  OG        17.0040   50.9130   12.5050 O.3   233  SER233     -0.2183
     82  N         20.3120   60.2940   18.3050 N.3   284  ARG284     -0.1231
     83  CA        19.4260   61.4010   17.9530 C.3   284  ARG284      0.1694
     84  C         17.9710   60.9840   17.9020 C.2   284  ARG284      0.2591
     85  O         17.0800   61.8250   17.7790 O.2   284  ARG284     -0.2718
     86  CB        19.8370   62.0350   16.6100 C.3   284  ARG284      0.0321
     87  CG        19.4330   61.2790   15.3490 C.3   284  ARG284      0.0489
     88  CD        19.8330   62.0830   14.1020 C.3   284  ARG284      0.2205
     89  NE        19.2880   61.5640   12.8390 N.pl3 284  ARG284     -0.0865
     90  CZ        19.7790   60.5320   12.1530 C.cat 284  ARG284      0.5346
     91  NH1       20.8430   59.8730   12.5940 N.pl3 284  ARG284      0.1354
     92  NH2       19.2170   60.1700   11.0030 N.pl3 284  ARG284      0.1354
     93  N         17.7340   59.6830   18.0240 N.am  285  GLU285     -0.1979
     94  CA        16.3840   59.1520   17.9720 C.3   285  GLU285      0.1602
     95  C         15.5420   59.4910   19.1940 C.2   285  GLU285      0.2287
     96  O         14.3140   59.3540   19.1520 O.2   285  GLU285     -0.2864
     97  CB        16.4310   57.6370   17.7380 C.3   285  GLU285      0.0415
     98  CG        16.8560   57.2840   16.3110 C.3   285  GLU285      0.1163
     99  CD        16.7830   55.8000   15.9990 C.2   285  GLU285      0.3649
    100  OE1       15.8240   55.1360   16.4540 O.co2 285  GLU285     -0.2457
    101  OE2       17.6780   55.3030   15.2800 O.co2 285  GLU285     -0.2457
    102  N         12.5820   61.6710   18.5060 N.3   288  ARG288     -0.1245
    103  CA        11.4510   61.1990   17.7040 C.3   288  ARG288      0.1563
    104  C         10.2730   60.7560   18.5650 C.2   288  ARG288      0.2260
    105  O         10.3740   59.7920   19.3160 O.2   288  ARG288     -0.2867
    106  CB        11.9060   60.0520   16.8070 C.3   288  ARG288      0.0307
    107  CG        13.0450   60.4420   15.8850 C.3   288  ARG288      0.0489
    108  CD        13.6250   59.2480   15.1650 C.3   288  ARG288      0.2205
    109  NE        14.5230   59.6890   14.1040 N.pl3 288  ARG288     -0.0865
    110  CZ        15.1900   58.8770   13.2920 C.cat 288  ARG288      0.5346
    111  NH1       15.0670   57.5610   13.4110 N.pl3 288  ARG288      0.1354
    112  NH2       15.9790   59.3860   12.3550 N.pl3 288  ARG288      0.1354
    113  N          7.4570   59.2530   17.7930 N.3   290  TYR290     -0.1241
    114  CA         6.9430   57.9180   17.4900 C.3   290  TYR290      0.1605
    115  C          7.8920   56.8240   17.9380 C.2   290  TYR290      0.2264
    116  O          7.5890   55.6320   17.8010 O.2   290  TYR290     -0.2867
    117  CB         6.7120   57.7620   15.9880 C.3   290  TYR290      0.0534
    118  CG         7.8810   58.2200   15.1440 C.ar  290  TYR290     -0.0201
    119  CD1        8.0620   59.5690   14.8510 C.ar  290  TYR290     -0.0009
    120  CD2        8.8030   57.3080   14.6400 C.ar  290  TYR290     -0.0009
    121  CE1        9.1330   59.9970   14.0730 C.ar  290  TYR290      0.0417
    122  CE2        9.8830   57.7290   13.8580 C.ar  290  TYR290      0.0417
    123  CZ        10.0370   59.0740   13.5830 C.ar  290  TYR290      0.1957
    124  OH        11.0960   59.5020   12.8280 O.3   290  TYR290     -0.2866
    125  N         11.2370   68.7510   11.5120 N.3   587  ARG587     -0.1245
    126  CA        11.0090   68.0890   10.2350 C.3   587  ARG587      0.1563
    127  C          9.5270   68.2520    9.9150 C.2   587  ARG587      0.2260
    128  O          8.7050   68.4460   10.8060 O.2   587  ARG587     -0.2867
    129  CB        11.3560   66.5980   10.3240 C.3   587  ARG587      0.0307
    130  CG        12.8400   66.3060   10.4690 C.3   587  ARG587      0.0489
    131  CD        13.0640   65.0820   11.3340 C.3   587  ARG587      0.2205
    132  NE        13.0010   63.8210   10.6070 N.pl3 587  ARG587     -0.0865
    133  CZ        12.6110   62.6690   11.1470 C.cat 587  ARG587      0.5346
    134  NH1       12.2310   62.6130   12.4200 N.pl3 587  ARG587      0.1354
    135  NH2       12.6210   61.5620   10.4200 N.pl3 587  ARG587      0.1354
@<TRIPOS>BOND
     1    43    42    2
     2    42    41    1
     3    21    20    2
     4     1     2    1
     5    20    19    1
     6    18    19    1
     7    44    41    1
     8    44    45    1
     9    41    40    1
    10     2     3    1
    11     2     5    1
    12    19    22    1
    13    26    27    1
    14    40    28   am
    15    29    28    2
    16    28    27    1
    17     3     4    2
    18    22    23    1
    19     9    10    1
    20     5     6    1
    21    27    30    1
    22     8     6   am
    23    45    46   ar
    24    45    47   ar
    25    53    52    2
    26    46    48   ar
    27     6     7    2
    28    52    51    1
    29    10    11    1
    30    10    13    1
    31    47    49   ar
    32    11    12    2
    33    23    24    2
    34    23    25   am
    35    30    31    1
    36    48    49   ar
    37    51    54    1
    38    51    50    1
    39    31    33   ar
    40    31    32   ar
    41    13    14    1
    42    36    33   ar
    43    36    38   ar
    44    14    15    1
    45    54    55    1
    46    33    35   ar
    47    38    39   ar
    48    32    34   ar
    49    35    34   ar
    50    35    37   ar
    51    39    37   ar
    52    15    16   ar
    53    15    17   ar
    54    55    56   ar
    55    55    57   ar
    56    56    58   ar
    57    57    60   ar
    58    57    59   ar
    59    60    62   ar
    60    58    59   ar
    61    59    61   ar
    62    62    63   ar
    63    61    63   ar
    64   127   126    1
    65   127   128    2
    66   126   129    1
    67   126   125    1
    68   129   130    1
    69   135   133    1
    70   130   131    1
    71   132   133    2
    72   132   131    1
    73    75    74    1
    74    72    74   ar
    75    72    70   ar
    76    92    90    1
    77   133   134    1
    78    74    73   ar
    79    70    69   ar
    80    79    78    2
    81    90    91    1
    82    90    89    2
    83    80    81    1
    84    80    77    1
    85   112   110    1
    86    78    77    1
    87    73    71   ar
    88   124   123    1
    89    89    88    1
    90    69    71   ar
    91    69    68    1
    92    77    76    1
    93   110   111    1
    94   110   109    2
    95   123   122   ar
    96   123   121   ar
    97    68    65    1
    98   122   120   ar
    99    67    66    2
   100   121   119   ar
   101    88    87    1
   102   109   108    1
   103    65    66    1
   104    65    64    1
   105   120   118   ar
   106   119   118   ar
   107   118   117    1
   108   108   107    1
   109   101    99   ar
   110    87    86    1
   111   107   106    1
   112   117   114    1
   113    99    98    1
   114    99   100   ar
   115    98    97    1
   116    86    83    1
   117   106   103    1
   118   114   113    1
   119   114   115    1
   120   103   102    1
   121   103   104    1
   122    97    94    1
   123    85    84    2
   124   116   115    2
   125    84    83    1
   126    84    93   am
   127    83    82    1
   128    94    93    1
   129    94    95    1
   130   104   105    2
   131    96    95    2
