@<TRIPOS>MOLECULE
tmp/1j0zB01.pdb
 112 110 0 0 0
SMALL
GASTEIGER

@<TRIPOS>ATOM
      1  N         12.8710    2.7030   57.6320 N.3   221  TRP221     -0.1241
      2  CA        14.1550    3.3330   57.3630 C.3   221  TRP221      0.1605
      3  C         15.2520    2.8340   58.2910 C.2   221  TRP221      0.2264
      4  O         16.4290    2.8750   57.9410 O.2   221  TRP221     -0.2867
      5  CB        14.0340    4.8480   57.5040 C.3   221  TRP221      0.0550
      6  CG        13.2900    5.4950   56.3960 C.ar  221  TRP221      0.0003
      7  CD1       12.7680    4.8860   55.2900 C.ar  221  TRP221      0.0946
      8  CD2       13.0020    6.8900   56.2630 C.ar  221  TRP221      0.0152
      9  NE1       12.1790    5.8180   54.4750 N.ar  221  TRP221     -0.2442
     10  CE2       12.3050    7.0560   55.0460 C.ar  221  TRP221      0.0810
     11  CE3       13.2670    8.0180   57.0540 C.ar  221  TRP221      0.0012
     12  CZ2       11.8660    8.3050   54.5980 C.ar  221  TRP221      0.0191
     13  CZ3       12.8320    9.2600   56.6090 C.ar  221  TRP221      0.0001
     14  CH2       12.1380    9.3920   55.3890 C.ar  221  TRP221      0.0015
     15  N         15.6340    4.1330   61.2960 N.3   223  THR223     -0.1218
     16  CA        16.0790    5.3670   61.9260 C.3   223  THR223      0.1862
     17  C         15.4320    5.6020   63.2900 C.2   223  THR223      0.2287
     18  O         14.5070    4.8910   63.6850 O.2   223  THR223     -0.2866
     19  CB        15.7980    6.5880   61.0060 C.3   223  THR223      0.1770
     20  OG1       14.4610    6.5130   60.4890 O.3   223  THR223     -0.2211
     21  CG2       16.7900    6.6310   59.8520 C.3   223  THR223      0.0375
     22  N         14.2730    8.8470   64.3360 N.3   225  LEU225     -0.1245
     23  CA        13.8680   10.2360   64.1730 C.3   225  LEU225      0.1561
     24  C         13.0220   10.7400   65.3300 C.2   225  LEU225      0.2260
     25  O         12.0450   10.1010   65.7350 O.2   225  LEU225     -0.2867
     26  CB        13.1170   10.4270   62.8530 C.3   225  LEU225      0.0270
     27  CG        13.9530   10.1620   61.6020 C.3   225  LEU225      0.0019
     28  CD1       13.1010   10.3110   60.3660 C.3   225  LEU225      0.0001
     29  CD2       15.1350   11.1150   61.5600 C.3   225  LEU225      0.0001
     30  N         12.1690   15.8840   61.1300 N.3   230  ALA230     -0.1231
     31  CA        13.4630   15.2620   60.9080 C.3   230  ALA230      0.1694
     32  C         13.4450   14.4970   59.5860 C.2   230  ALA230      0.2592
     33  O         14.4800   14.0140   59.1300 O.2   230  ALA230     -0.2718
     34  CB        13.8060   14.3350   62.0560 C.3   230  ALA230      0.0304
     35  N         12.2600   14.3590   58.9920 N.am  231  ILE231     -0.1966
     36  CA        12.1190   13.6770   57.7060 C.3   231  ILE231      0.1727
     37  C         12.4650   14.7090   56.6380 C.2   231  ILE231      0.2616
     38  O         11.6840   15.6280   56.3720 O.2   231  ILE231     -0.2715
     39  CB        10.6820   13.1500   57.4950 C.3   231  ILE231      0.0290
     40  CG1       10.3490   12.1080   58.5670 C.3   231  ILE231      0.0022
     41  CG2       10.5330   12.5530   56.0890 C.3   231  ILE231      0.0023
     42  CD1        8.9230   11.5950   58.5080 C.3   231  ILE231      0.0001
     43  N         13.6310   14.5480   56.0170 N.am  232  LEU232     -0.1964
     44  CA        14.1040   15.5060   55.0220 C.3   232  LEU232      0.1713
     45  C         14.8600   14.8770   53.8550 C.2   232  LEU232      0.2458
     46  O         15.1430   13.6800   53.8580 O.2   232  LEU232     -0.2730
     47  CB        15.0590   16.5000   55.7070 C.3   232  LEU232      0.0310
     48  CG        14.6030   17.3590   56.8860 C.3   232  LEU232      0.0022
     49  CD1       15.8020   17.6990   57.7560 C.3   232  LEU232      0.0001
     50  CD2       13.9080   18.6200   56.3930 C.3   232  LEU232      0.0001
     51  N         15.1150   15.6740   52.7960 N.am  233  PRO233     -0.2716
     52  CA        15.8540   15.2100   51.6150 C.3   233  PRO233      0.1521
     53  C         17.3140   15.0550   52.0780 C.2   233  PRO233      0.2440
     54  O         17.6940   15.5800   53.1350 O.2   233  PRO233     -0.2731
     55  CB        15.7260   16.3930   50.6500 C.3   233  PRO233      0.0310
     56  CG        14.4380   17.0340   51.0510 C.3   233  PRO233      0.0237
     57  CD        14.5130   16.9990   52.5420 C.3   233  PRO233      0.0939
     58  N         18.1600   14.3800   51.2840 N.am  234  PRO234     -0.2716
     59  CA        19.5650   14.2000   51.6770 C.3   234  PRO234      0.1536
     60  C         20.3340   15.4930   51.9650 C.2   234  PRO234      0.2599
     61  O         20.4020   16.3890   51.1320 O.2   234  PRO234     -0.2715
     62  CB        20.1540   13.4260   50.4910 C.3   234  PRO234      0.0310
     63  CG        19.2710   13.8070   49.3390 C.3   234  PRO234      0.0237
     64  CD        17.9030   13.7800   49.9660 C.3   234  PRO234      0.0939
     65  N         20.9030   15.5900   53.1600 N.am  235  SER235     -0.1950
     66  CA        21.6740   16.7750   53.5410 C.3   235  SER235      0.1924
     67  C         22.9800   16.8350   52.7500 C.2   235  SER235      0.2314
     68  O         23.4670   17.9150   52.4110 O.2   235  SER235     -0.2863
     69  CB        21.9530   16.7660   55.0400 C.3   235  SER235      0.2116
     70  OG        22.5430   15.5370   55.4300 O.3   235  SER235     -0.2180
     71  N         27.3100   11.9790   49.4980 N.3   239  GLN239     -0.1231
     72  CA        27.2670   10.7730   50.3180 C.3   239  GLN239      0.1698
     73  C         26.0490    9.9500   49.9050 C.2   239  GLN239      0.2592
     74  O         26.1130    8.7210   49.8010 O.2   239  GLN239     -0.2718
     75  CB        27.1980   11.1480   51.8010 C.3   239  GLN239      0.0381
     76  CG        26.9600    9.9850   52.7670 C.3   239  GLN239      0.0905
     77  CD        25.4810    9.6760   52.9810 C.2   239  GLN239      0.2608
     78  OE1       25.0640    8.5200   52.9300 O.2   239  GLN239     -0.2717
     79  NE2       24.6880   10.7100   53.2350 N.am  239  GLN239     -0.0878
     80  N         24.9480   10.6400   49.6260 N.am  240  PHE240     -0.1976
     81  CA        23.7320    9.9610   49.2120 C.3   240  PHE240      0.1639
     82  C         23.9850    9.1790   47.9260 C.2   240  PHE240      0.2290
     83  O         23.6370    8.0000   47.8300 O.2   240  PHE240     -0.2864
     84  CB        22.5890   10.9590   49.0100 C.3   240  PHE240      0.0560
     85  CG        21.2790   10.3060   48.6620 C.ar  240  PHE240     -0.0200
     86  CD1       20.5050    9.6970   49.6500 C.ar  240  PHE240     -0.0042
     87  CD2       20.8420   10.2530   47.3370 C.ar  240  PHE240     -0.0042
     88  CE1       19.3200    9.0410   49.3250 C.ar  240  PHE240     -0.0003
     89  CE2       19.6540    9.5990   46.9990 C.ar  240  PHE240     -0.0003
     90  CZ        18.8930    8.9920   47.9930 C.ar  240  PHE240     -0.0000
     91  N         24.1870    6.2710   50.1360 N.3   244  GLY244     -0.1225
     92  CA        22.9040    6.5810   50.7390 C.3   244  GLY244      0.1811
     93  C         21.7070    6.0770   49.9470 C.2   244  GLY244      0.2280
     94  O         20.6960    5.6930   50.5270 O.2   244  GLY244     -0.2866
     95  N         19.9770    2.6080   50.7050 N.3   247  SER247     -0.1217
     96  CA        19.1060    2.4470   51.8630 C.3   247  SER247      0.1889
     97  C         17.6230    2.5330   51.5030 C.2   247  SER247      0.2288
     98  O         17.2630    3.0300   50.4290 O.2   247  SER247     -0.2866
     99  CB        19.4250    3.5210   52.9010 C.3   247  SER247      0.2089
    100  OG        19.0710    4.8090   52.4230 O.3   247  SER247     -0.2183
    101  N         15.5490    4.4450   52.8660 N.3   249  TYR249     -0.1241
    102  CA        15.3030    5.8780   52.7960 C.3   249  TYR249      0.1605
    103  C         15.6050    6.3380   51.3750 C.2   249  TYR249      0.2264
    104  O         14.8370    7.1040   50.7900 O.2   249  TYR249     -0.2867
    105  CB        16.2080    6.6410   53.7740 C.3   249  TYR249      0.0534
    106  CG        16.3540    8.1120   53.4230 C.ar  249  TYR249     -0.0201
    107  CD1       15.3920    9.0410   53.8150 C.ar  249  TYR249     -0.0009
    108  CD2       17.4270    8.5630   52.6500 C.ar  249  TYR249     -0.0009
    109  CE1       15.4920   10.3750   53.4470 C.ar  249  TYR249      0.0417
    110  CE2       17.5330    9.8960   52.2780 C.ar  249  TYR249      0.0417
    111  CZ        16.5620   10.7910   52.6820 C.ar  249  TYR249      0.1957
    112  OH        16.6650   12.1080   52.3320 O.3   249  TYR249     -0.2866
@<TRIPOS>BOND
     1    89    87   ar
     2    89    90   ar
     3    87    85   ar
     4    83    82    2
     5    82    81    1
     6    90    88   ar
     7    85    84    1
     8    85    86   ar
     9    84    81    1
    10    81    80    1
    11    88    86   ar
    12    63    64    1
    13    63    62    1
    14    71    72    1
    15    80    73   am
    16    74    73    2
    17    73    72    1
    18    93    94    2
    19    93    92    1
    20    64    58    1
    21    91    92    1
    22    72    75    1
    23    98    97    2
    24    62    59    1
    25    55    56    1
    26    55    52    1
    27    95    96    1
    28   104   103    2
    29    56    57    1
    30    61    60    2
    31    58    59    1
    32    58    53   am
    33   103   102    1
    34    97    96    1
    35    52    53    1
    36    52    51    1
    37    59    60    1
    38    75    76    1
    39    96    99    1
    40    60    65   am
    41    53    54    2
    42   110   108   ar
    43   110   111   ar
    44   112   111    1
    45    68    67    2
    46   100    99    1
    47    57    51    1
    48   108   106   ar
    49   111   109   ar
    50    67    66    1
    51    76    77    1
    52    51    45   am
    53   102   101    1
    54   102   105    1
    55    78    77    2
    56    77    79   am
    57    65    66    1
    58   106   105    1
    59   106   107   ar
    60   109   107   ar
    61    66    69    1
    62    45    46    2
    63    45    44    1
    64     9    10   ar
    65     9     7   ar
    66    12    10   ar
    67    12    14   ar
    68    44    47    1
    69    44    43    1
    70    69    70    1
    71    10     8   ar
    72     7     6   ar
    73    14    13   ar
    74    47    48    1
    75    43    37   am
    76    41    39    1
    77     8     6   ar
    78     8    11   ar
    79    38    37    2
    80    50    48    1
    81     6     5    1
    82    13    11   ar
    83    37    36    1
    84    48    49    1
    85     2     5    1
    86     2     1    1
    87     2     3    1
    88    39    36    1
    89    39    40    1
    90    36    35    1
    91     4     3    2
    92    42    40    1
    93    35    32   am
    94    33    32    2
    95    32    31    1
    96    21    19    1
    97    28    27    1
    98    20    19    1
    99    31    30    1
   100    31    34    1
   101    19    16    1
   102    15    16    1
   103    29    27    1
   104    27    26    1
   105    16    17    1
   106    26    23    1
   107    17    18    2
   108    23    22    1
   109    23    24    1
   110    24    25    2
