@<TRIPOS>MOLECULE
tmp/1j0zB00.pdb
 163 152 0 0 0
SMALL
GASTEIGER

@<TRIPOS>ATOM
      1  N         15.2010   21.7160   13.0290 N.3    16  MET16      -0.1245
      2  CA        14.9190   22.6690   14.0940 C.3    16  MET16       0.1570
      3  C         15.1110   24.0990   13.6140 C.2    16  MET16       0.2261
      4  O         16.1460   24.4260   13.0250 O.2    16  MET16      -0.2867
      5  CB        15.8330   22.4340   15.2980 C.3    16  MET16       0.0387
      6  CG        15.2380   21.5640   16.3820 C.3    16  MET16       0.0595
      7  SD        16.2510   21.5370   17.8820 S.3    16  MET16      -0.1393
      8  CE        16.6110   19.7610   18.0230 C.3    16  MET16       0.0692
      9  N         16.6960   29.8190   17.2180 N.3    19  LEU19      -0.1245
     10  CA        16.1890   30.1830   18.5340 C.3    19  LEU19       0.1561
     11  C         15.5650   31.5860   18.4830 C.2    19  LEU19       0.2260
     12  O         14.6260   31.8960   19.2250 O.2    19  LEU19      -0.2867
     13  CB        17.3270   30.1340   19.5500 C.3    19  LEU19       0.0270
     14  CG        17.2960   29.0440   20.6220 C.3    19  LEU19       0.0019
     15  CD1       16.5930   27.7870   20.1410 C.3    19  LEU19       0.0001
     16  CD2       18.7150   28.7490   21.0560 C.3    19  LEU19       0.0001
     17  N         10.1400   26.6850   18.3320 N.3    49  ASP49      -0.1239
     18  CA         9.7590   27.0680   19.6840 C.3    49  ASP49       0.1674
     19  C          8.8620   28.2930   19.6910 C.2    49  ASP49       0.2266
     20  O          9.1270   29.2790   18.9970 O.2    49  ASP49      -0.2867
     21  CB        10.9850   27.3940   20.5460 C.3    49  ASP49       0.1410
     22  CG        11.8100   26.1810   20.8840 C.2    49  ASP49       0.3668
     23  OD1       11.5150   25.5280   21.9050 O.co2  49  ASP49      -0.2456
     24  OD2       12.7670   25.8990   20.1350 O.co2  49  ASP49      -0.2456
     25  N          7.6500   30.5580   22.5310 N.3    51  TRP51      -0.1241
     26  CA         7.8970   30.9050   23.9240 C.3    51  TRP51       0.1605
     27  C          6.7290   31.5030   24.6650 C.2    51  TRP51       0.2264
     28  O          6.0960   32.4520   24.2030 O.2    51  TRP51      -0.2867
     29  CB         9.0850   31.8700   24.0270 C.3    51  TRP51       0.0550
     30  CG        10.2910   31.3860   23.3140 C.ar   51  TRP51       0.0003
     31  CD1       10.7490   31.8060   22.0980 C.ar   51  TRP51       0.0946
     32  CD2       11.1540   30.3190   23.7240 C.ar   51  TRP51       0.0152
     33  NE1       11.8360   31.0560   21.7190 N.ar   51  TRP51      -0.2442
     34  CE2       12.1050   30.1330   22.6970 C.ar   51  TRP51       0.0810
     35  CE3       11.2090   29.4930   24.8550 C.ar   51  TRP51       0.0012
     36  CZ2       13.1000   29.1520   22.7650 C.ar   51  TRP51       0.0191
     37  CZ3       12.1960   28.5180   24.9210 C.ar   51  TRP51       0.0001
     38  CH2       13.1270   28.3570   23.8820 C.ar   51  TRP51       0.0015
     39  N          6.4610   23.8390   19.2890 N.3    85  ILE85      -0.1245
     40  CA         6.8230   23.3870   20.6150 C.3    85  ILE85       0.1561
     41  C          6.2660   24.4760   21.5120 C.2    85  ILE85       0.2260
     42  O          6.6150   25.6420   21.3570 O.2    85  ILE85      -0.2867
     43  CB         8.3570   23.3000   20.8160 C.3    85  ILE85       0.0252
     44  CG1        8.9770   22.2880   19.8480 C.3    85  ILE85       0.0019
     45  CG2        8.6710   22.9180   22.2570 C.3    85  ILE85       0.0019
     46  CD1       10.4970   22.2050   19.9420 C.3    85  ILE85       0.0001
     47  N          9.2220   27.2130   29.0520 N.3    89  HIS89      -0.1226
     48  CA        10.4980   27.3030   29.7470 C.3    89  HIS89       0.1752
     49  C         11.2620   28.5110   29.2030 C.2    89  HIS89       0.2595
     50  O         10.9390   29.0310   28.1320 O.2    89  HIS89      -0.2718
     51  CB        11.3120   26.0170   29.5480 C.3    89  HIS89       0.0759
     52  CG        11.7100   25.7670   28.1260 C.ar   89  HIS89       0.0818
     53  ND1       10.9400   25.0290   27.2550 N.ar   89  HIS89      -0.2268
     54  CD2       12.8060   26.1510   27.4270 C.ar   89  HIS89       0.1154
     55  CE1       11.5410   24.9680   26.0790 C.ar   89  HIS89       0.1986
     56  NE2       12.6760   25.6420   26.1590 N.ar   89  HIS89      -0.2212
     57  N         12.2700   28.9440   29.9450 N.am   90  GLN90      -0.1979
     58  CA        13.1020   30.0800   29.5740 C.3    90  GLN90       0.1601
     59  C         14.0880   29.7970   28.4310 C.2    90  GLN90       0.2287
     60  O         14.6800   28.7170   28.3550 O.2    90  GLN90      -0.2864
     61  CB        13.8880   30.5310   30.8040 C.3    90  GLN90       0.0394
     62  CG        14.8880   31.6460   30.5560 C.3    90  GLN90       0.0908
     63  CD        15.7190   31.9630   31.7740 C.2    90  GLN90       0.2608
     64  OE1       15.2070   32.4280   32.7870 O.2    90  GLN90      -0.2717
     65  NE2       17.0120   31.7060   31.6840 N.am   90  GLN90      -0.0878
     66  N         20.6230   27.8520   28.9790 N.3    94  ASN94      -0.1225
     67  CA        20.9570   26.5040   28.5240 C.3    94  ASN94       0.1785
     68  C         22.0550   26.5900   27.4650 C.2    94  ASN94       0.2597
     69  O         22.3030   27.6600   26.8980 O.2    94  ASN94      -0.2718
     70  CB        19.7260   25.8140   27.9210 C.3    94  ASN94       0.1169
     71  CG        18.5190   25.8520   28.8380 C.2    94  ASN94       0.2627
     72  OD1       18.5750   25.3820   29.9740 O.2    94  ASN94      -0.2716
     73  ND2       17.4110   26.4000   28.3400 N.am   94  ASN94      -0.0877
     74  N         22.6860   25.4580   27.1740 N.am   95  VAL95      -0.1980
     75  CA        23.7550   25.4250   26.1800 C.3    95  VAL95       0.1595
     76  C         23.2700   25.7720   24.7690 C.2    95  VAL95       0.2287
     77  O         22.2340   25.2710   24.3000 O.2    95  VAL95      -0.2864
     78  CB        24.4980   24.0570   26.1720 C.3    95  VAL95       0.0276
     79  CG1       25.1680   23.8260   27.5200 C.3    95  VAL95       0.0022
     80  CG2       23.5350   22.9080   25.8430 C.3    95  VAL95       0.0022
     81  N         22.0070   28.5150   23.8350 N.3    97  ASP97      -0.1239
     82  CA        20.9280   29.4870   23.8380 C.3    97  ASP97       0.1674
     83  C         21.3720   30.9020   23.4830 C.2    97  ASP97       0.2266
     84  O         22.0580   31.5740   24.2600 O.2    97  ASP97      -0.2867
     85  CB        20.1880   29.4730   25.1770 C.3    97  ASP97       0.1410
     86  CG        19.3270   28.2340   25.3620 C.2    97  ASP97       0.3668
     87  OD1       19.5140   27.2460   24.6160 O.co2  97  ASP97      -0.2456
     88  OD2       18.4600   28.2470   26.2580 O.co2  97  ASP97      -0.2456
     89  N         14.9630   23.6810   29.1290 N.3   170  ALA170     -0.1231
     90  CA        15.3320   23.3300   27.7580 C.3   170  ALA170      0.1694
     91  C         14.2480   22.4830   27.0740 C.2   170  ALA170      0.2593
     92  O         14.5010   21.8120   26.0690 O.2   170  ALA170     -0.2718
     93  CB        16.6780   22.6060   27.7350 C.3   170  ALA170      0.0304
     94  N         13.0340   22.5400   27.6180 N.am  171  GLY171     -0.1942
     95  CA        11.9260   21.7800   27.0640 C.3   171  GLY171      0.2014
     96  C         12.0400   20.2930   27.3240 C.2   171  GLY171      0.2638
     97  O         11.4370   19.4930   26.6180 O.2   171  GLY171     -0.2714
     98  N         12.8010   19.9240   28.3470 N.am  172  GLU172     -0.1977
     99  CA        12.9970   18.5250   28.6900 C.3   172  GLU172      0.1602
    100  C         12.3920   18.2070   30.0480 C.2   172  GLU172      0.2287
    101  O         12.4150   19.0310   30.9590 O.2   172  GLU172     -0.2864
    102  CB        14.4860   18.1910   28.6900 C.3   172  GLU172      0.0415
    103  CG        15.1740   18.5090   27.3720 C.3   172  GLU172      0.1163
    104  CD        16.6900   18.4490   27.4560 C.2   172  GLU172      0.3649
    105  OE1       17.3020   17.7750   26.6040 O.co2 172  GLU172     -0.2457
    106  OE2       17.2670   19.0840   28.3600 O.co2 172  GLU172     -0.2457
    107  N         10.0780   15.5860   25.4910 N.3   287  LYS287     -0.1245
    108  CA        11.5000   15.2390   25.4270 C.3   287  LYS287      0.1561
    109  C         12.1230   14.7920   26.7530 C.2   287  LYS287      0.2260
    110  O         11.8270   15.3440   27.8160 O.2   287  LYS287     -0.2867
    111  CB        12.2990   16.4250   24.8760 C.3   287  LYS287      0.0271
    112  CG        11.8240   16.9400   23.5290 C.3   287  LYS287      0.0035
    113  CD        12.6860   18.1010   23.0550 C.3   287  LYS287      0.0206
    114  CE        12.1770   18.6610   21.7410 C.3   287  LYS287      0.1093
    115  NZ        13.0250   19.7690   21.2320 N.3   287  LYS287     -0.1314
    116  N         17.7030   12.2850   22.8950 N.3   330  THR330     -0.1218
    117  CA        18.8120   12.9330   22.1930 C.3   330  THR330      0.1862
    118  C         20.1550   12.1900   22.3150 C.2   330  THR330      0.2287
    119  O         20.2090   11.0700   22.8310 O.2   330  THR330     -0.2866
    120  CB        18.9540   14.4050   22.6630 C.3   330  THR330      0.1770
    121  OG1       19.9830   15.0600   21.9190 O.3   330  THR330     -0.2211
    122  CG2       19.2830   14.4700   24.1380 C.3   330  THR330      0.0375
    123  N         17.1050   13.0770   18.2550 N.3   367  GLU367     -0.1245
    124  CA        17.7870   14.2860   17.8260 C.3   367  GLU367      0.1567
    125  C         19.2430   14.3020   18.2940 C.2   367  GLU367      0.2260
    126  O         19.6340   13.5160   19.1550 O.2   367  GLU367     -0.2867
    127  CB        17.0380   15.5350   18.3060 C.3   367  GLU367      0.0388
    128  CG        16.7910   15.6240   19.7960 C.3   367  GLU367      0.1160
    129  CD        15.9980   16.8650   20.1720 C.2   367  GLU367      0.3649
    130  OE1       16.4900   17.6730   20.9770 O.co2 367  GLU367     -0.2457
    131  OE2       14.8740   17.0410   19.6610 O.co2 367  GLU367     -0.2457
    132  N         22.4580   15.9960   20.1120 N.3   369  ALA369     -0.1231
    133  CA        22.6440   16.8620   21.2700 C.3   369  ALA369      0.1694
    134  C         23.4010   18.1400   20.9230 C.2   369  ALA369      0.2591
    135  O         23.0440   19.2270   21.3750 O.2   369  ALA369     -0.2718
    136  CB        23.3730   16.1010   22.3750 C.3   369  ALA369      0.0304
    137  N         24.4560   18.0010   20.1280 N.am  370  LEU370     -0.1980
    138  CA        25.2790   19.1410   19.7330 C.3   370  LEU370      0.1596
    139  C         25.3430   19.2360   18.2210 C.2   370  LEU370      0.2287
    140  O         25.0550   18.2630   17.5250 O.2   370  LEU370     -0.2864
    141  CB        26.6940   18.9940   20.3060 C.3   370  LEU370      0.0297
    142  CG        26.7930   18.8750   21.8290 C.3   370  LEU370      0.0022
    143  CD1       28.1970   18.4680   22.2280 C.3   370  LEU370      0.0001
    144  CD2       26.3950   20.1860   22.4900 C.3   370  LEU370      0.0001
    145  N         19.3600   19.4830   14.7450 N.3   396  LEU396     -0.1231
    146  CA        19.6230   20.7380   15.4190 C.3   396  LEU396      0.1693
    147  C         20.9410   21.2000   14.7660 C.2   396  LEU396      0.2591
    148  O         21.9460   20.4830   14.8200 O.2   396  LEU396     -0.2718
    149  CB        19.7790   20.4630   16.9210 C.3   396  LEU396      0.0284
    150  CG        19.9700   21.5630   17.9660 C.3   396  LEU396      0.0019
    151  CD1       19.5400   21.0300   19.3250 C.3   396  LEU396      0.0001
    152  CD2       21.4220   22.0330   18.0050 C.3   396  LEU396      0.0001
    153  N         20.9500   22.3610   14.1160 N.am  397  ARG397     -0.1980
    154  CA        19.8070   23.2570   14.0080 C.3   397  ARG397      0.1597
    155  C         19.8800   23.9630   12.6510 C.2   397  ARG397      0.2287
    156  O         20.9250   23.9760   12.0060 O.2   397  ARG397     -0.2864
    157  CB        19.8770   24.2880   15.1330 C.3   397  ARG397      0.0334
    158  CG        18.7040   25.2290   15.2390 C.3   397  ARG397      0.0492
    159  CD        18.9170   26.2390   16.3720 C.3   397  ARG397      0.2205
    160  NE        18.9700   25.6160   17.6970 N.pl3 397  ARG397     -0.0865
    161  CZ        17.9010   25.2510   18.4030 C.cat 397  ARG397      0.5346
    162  NH1       16.6800   25.4410   17.9210 N.pl3 397  ARG397      0.1354
    163  NH2       18.0490   24.7040   19.6020 N.pl3 397  ARG397      0.1354
@<TRIPOS>BOND
     1   156   155    2
     2   155   154    1
     3     4     3    2
     4     1     2    1
     5     3     2    1
     6   154   153    1
     7   154   157    1
     8     2     5    1
     9   153   147   am
    10   145   146    1
    11   147   148    2
    12   147   146    1
    13   157   158    1
    14   158   159    1
    15     5     6    1
    16   146   149    1
    17   159   160    1
    18     6     7    1
    19   149   150    1
    20     9    10    1
    21   140   139    2
    22   160   161    2
    23   124   123    1
    24   124   125    1
    25   124   127    1
    26     7     8    1
    27   162   161    1
    28   150   152    1
    29   150   151    1
    30   139   138    1
    31   125   126    2
    32   127   128    1
    33    17    18    1
    34   161   163    1
    35    11    10    1
    36    11    12    2
    37    10    13    1
    38    20    19    2
    39    39    40    1
    40    13    14    1
    41   131   129   ar
    42    18    19    1
    43    18    21    1
    44   138   137    1
    45   138   141    1
    46   128   129    1
    47    44    46    1
    48    44    43    1
    49   132   133    1
    50   137   134   am
    51    24    22   ar
    52    15    14    1
    53   129   130   ar
    54   141   142    1
    55    21    22    1
    56    40    43    1
    57    40    41    1
    58    14    16    1
    59    43    45    1
    60    22    23   ar
    61   134   133    1
    62   134   135    2
    63   115   114    1
    64   133   136    1
    65    42    41    2
    66    33    31   ar
    67    33    34   ar
    68   114   113    1
    69   142   143    1
    70   142   144    1
    71   121   120    1
    72    31    30   ar
    73   117   118    1
    74   117   120    1
    75   117   116    1
    76   118   119    2
    77    25    26    1
    78   120   122    1
    79    34    36   ar
    80    34    32   ar
    81    36    38   ar
    82   113   112    1
    83    30    32   ar
    84    30    29    1
    85    83    82    1
    86    83    84    2
    87   112   111    1
    88    32    35   ar
    89    81    82    1
    90    82    85    1
    91    38    37   ar
    92    26    29    1
    93    26    27    1
    94    28    27    2
    95    77    76    2
    96    87    86   ar
    97    76    75    1
    98    35    37   ar
    99   111   108    1
   100    85    86    1
   101    86    88   ar
   102   108   107    1
   103   108   109    1
   104    80    78    1
   105    92    91    2
   106    55    56   ar
   107    55    53   ar
   108    56    54   ar
   109    78    75    1
   110    78    79    1
   111    75    74    1
   112   105   104   ar
   113    97    96    2
   114   109   110    2
   115    69    68    2
   116    95    96    1
   117    95    94    1
   118    91    94   am
   119    91    90    1
   120    74    68   am
   121    53    52   ar
   122    96    98   am
   123   103   104    1
   124   103   102    1
   125    54    52   ar
   126   104   106   ar
   127    68    67    1
   128    93    90    1
   129    90    89    1
   130    70    67    1
   131    70    71    1
   132    52    51    1
   133    50    49    2
   134    73    71   am
   135    98    99    1
   136    60    59    2
   137    59    58    1
   138    67    66    1
   139    99   102    1
   140    99   100    1
   141    71    72    2
   142    47    48    1
   143    49    48    1
   144    49    57   am
   145    51    48    1
   146    58    57    1
   147    58    61    1
   148   100   101    2
   149    62    61    1
   150    62    63    1
   151    65    63   am
   152    63    64    2
