@<TRIPOS>MOLECULE
tmp/1j10D01.pdb
 128 126 0 0 0
SMALL
GASTEIGER

@<TRIPOS>ATOM
      1  N         36.5410  -30.8790    0.4750 N.3   221  TRP221     -0.1241
      2  CA        36.4830  -29.4740    0.1020 C.3   221  TRP221      0.1605
      3  C         35.3080  -29.1840   -0.8270 C.2   221  TRP221      0.2264
      4  O         34.9850  -28.0160   -1.0810 O.2   221  TRP221     -0.2867
      5  CB        37.7820  -29.0510   -0.5820 C.3   221  TRP221      0.0550
      6  CG        38.9630  -28.9620    0.3440 C.ar  221  TRP221      0.0003
      7  CD1       38.9770  -29.1870    1.6980 C.ar  221  TRP221      0.0946
      8  CD2       40.3070  -28.6240   -0.0200 C.ar  221  TRP221      0.0152
      9  NE1       40.2490  -29.0080    2.1920 N.ar  221  TRP221     -0.2442
     10  CE2       41.0840  -28.6630    1.1620 C.ar  221  TRP221      0.0810
     11  CE3       40.9310  -28.2920   -1.2330 C.ar  221  TRP221      0.0012
     12  CZ2       42.4550  -28.3810    1.1680 C.ar  221  TRP221      0.0191
     13  CZ3       42.2980  -28.0100   -1.2270 C.ar  221  TRP221      0.0001
     14  CH2       43.0420  -28.0580   -0.0320 C.ar  221  TRP221      0.0015
     15  N         35.2270  -29.5990   -3.9070 N.3   223  THR223     -0.1218
     16  CA        35.7960  -28.9250   -5.0630 C.3   223  THR223      0.1862
     17  C         36.0660  -29.9130   -6.1880 C.2   223  THR223      0.2287
     18  O         35.8930  -31.1300   -6.0260 O.2   223  THR223     -0.2866
     19  CB        37.1290  -28.2180   -4.6990 C.3   223  THR223      0.1770
     20  OG1       38.0200  -29.1520   -4.0720 O.3   223  THR223     -0.2211
     21  CG2       36.8820  -27.0530   -3.7550 C.3   223  THR223      0.0375
     22  N         39.1750  -30.3750   -8.2150 N.3   225  LEU225     -0.1245
     23  CA        40.5710  -30.1920   -8.5650 C.3   225  LEU225      0.1561
     24  C         40.9560  -31.3530   -9.4740 C.2   225  LEU225      0.2260
     25  O         40.6130  -32.5110   -9.2030 O.2   225  LEU225     -0.2867
     26  CB        41.4470  -30.1990   -7.3060 C.3   225  LEU225      0.0270
     27  CG        41.2170  -29.0850   -6.2800 C.3   225  LEU225      0.0019
     28  CD1       42.0010  -29.3640   -4.9980 C.3   225  LEU225      0.0001
     29  CD2       41.6180  -27.7470   -6.8770 C.3   225  LEU225      0.0001
     30  N         47.0910  -28.1590   -8.0780 N.3   230  ALA230     -0.1231
     31  CA        46.1010  -27.0880   -7.9690 C.3   230  ALA230      0.1694
     32  C         45.7940  -26.8350   -6.4950 C.2   230  ALA230      0.2592
     33  O         45.1260  -25.8620   -6.1510 O.2   230  ALA230     -0.2718
     34  CB        44.8270  -27.4560   -8.7160 C.3   230  ALA230      0.0304
     35  N         46.2440  -27.7490   -5.6350 N.am  231  ILE231     -0.1966
     36  CA        46.0520  -27.6260   -4.1920 C.3   231  ILE231      0.1727
     37  C         46.9930  -26.5120   -3.7540 C.2   231  ILE231      0.2616
     38  O         48.1730  -26.7520   -3.4910 O.2   231  ILE231     -0.2715
     39  CB        46.4270  -28.9340   -3.4580 C.3   231  ILE231      0.0290
     40  CG1       45.5360  -30.0790   -3.9410 C.3   231  ILE231      0.0022
     41  CG2       46.2990  -28.7590   -1.9510 C.3   231  ILE231      0.0023
     42  CD1       45.8300  -31.4030   -3.2660 C.3   231  ILE231      0.0001
     43  N         46.4760  -25.2880   -3.7390 N.am  232  LEU232     -0.1964
     44  CA        47.2680  -24.1240   -3.3720 C.3   232  LEU232      0.1713
     45  C         46.6370  -23.2740   -2.2770 C.2   232  LEU232      0.2458
     46  O         45.4640  -23.4410   -1.9480 O.2   232  LEU232     -0.2730
     47  CB        47.4630  -23.2310   -4.5970 C.3   232  LEU232      0.0310
     48  CG        48.1480  -23.7500   -5.8550 C.3   232  LEU232      0.0022
     49  CD1       48.4350  -22.5540   -6.7420 C.3   232  LEU232      0.0001
     50  CD2       49.4440  -24.4590   -5.5090 C.3   232  LEU232      0.0001
     51  N         47.4420  -22.3960   -1.6460 N.am  233  PRO233     -0.2716
     52  CA        46.9560  -21.5040   -0.5900 C.3   233  PRO233      0.1521
     53  C         46.0820  -20.4450   -1.2810 C.2   233  PRO233      0.2440
     54  O         46.1440  -20.2950   -2.5060 O.2   233  PRO233     -0.2731
     55  CB        48.2490  -20.9060   -0.0410 C.3   233  PRO233      0.0310
     56  CG        49.1730  -20.9370   -1.2240 C.3   233  PRO233      0.0237
     57  CD        48.9070  -22.2960   -1.7750 C.3   233  PRO233      0.0939
     58  N         45.2870  -19.6740   -0.5160 N.am  234  PRO234     -0.2716
     59  CA        44.4260  -18.6570   -1.1300 C.3   234  PRO234      0.1536
     60  C         45.0580  -17.7570   -2.1890 C.2   234  PRO234      0.2599
     61  O         46.0780  -17.1120   -1.9550 O.2   234  PRO234     -0.2715
     62  CB        43.8990  -17.8650    0.0750 C.3   234  PRO234      0.0310
     63  CG        44.8710  -18.1730    1.1710 C.3   234  PRO234      0.0237
     64  CD        45.1880  -19.6170    0.9490 C.3   234  PRO234      0.0939
     65  N         44.4460  -17.7390   -3.3680 N.am  235  SER235     -0.1936
     66  CA        44.9130  -16.9160   -4.4810 C.3   235  SER235      0.2055
     67  C         44.5590  -15.4430   -4.2410 C.2   235  SER235      0.2643
     68  O         45.1300  -14.5410   -4.8610 O.2   235  SER235     -0.2714
     69  CB        44.2940  -17.4230   -5.7920 C.3   235  SER235      0.2130
     70  OG        44.7130  -16.6680   -6.9120 O.3   235  SER235     -0.2179
     71  N         43.6060  -15.2070   -3.3430 N.am  236  ASP236     -0.1971
     72  CA        43.1820  -13.8540   -2.9960 C.3   236  ASP236      0.1709
     73  C         42.9530  -13.8210   -1.4870 C.2   236  ASP236      0.2293
     74  O         42.0030  -14.4210   -0.9800 O.2   236  ASP236     -0.2864
     75  CB        41.8980  -13.4850   -3.7460 C.3   236  ASP236      0.1436
     76  CG        41.5730  -11.9940   -3.6800 C.2   236  ASP236      0.3671
     77  OD1       42.1840  -11.2500   -2.8780 O.co2 236  ASP236     -0.2456
     78  OD2       40.6890  -11.5610   -4.4460 O.co2 236  ASP236     -0.2456
     79  N         39.5260  -11.7960   -0.2730 N.3   239  GLN239     -0.1231
     80  CA        38.3280  -12.6120   -0.4580 C.3   239  GLN239      0.1698
     81  C         38.3360  -13.7360    0.5740 C.2   239  GLN239      0.2592
     82  O         37.3110  -14.0300    1.1950 O.2   239  GLN239     -0.2718
     83  CB        38.2930  -13.1860   -1.8850 C.3   239  GLN239      0.0381
     84  CG        37.1220  -14.1320   -2.1940 C.3   239  GLN239      0.0905
     85  CD        37.4320  -15.6050   -1.9170 C.2   239  GLN239      0.2608
     86  OE1       36.6400  -16.3130   -1.2910 O.2   239  GLN239     -0.2717
     87  NE2       38.5750  -16.0740   -2.4040 N.am  239  GLN239     -0.0878
     88  N         39.5060  -14.3390    0.7800 N.am  240  PHE240     -0.1976
     89  CA        39.6290  -15.4270    1.7410 C.3   240  PHE240      0.1639
     90  C         39.2650  -14.9430    3.1490 C.2   240  PHE240      0.2290
     91  O         38.6070  -15.6640    3.9100 O.2   240  PHE240     -0.2864
     92  CB        41.0450  -16.0220    1.7190 C.3   240  PHE240      0.0560
     93  CG        41.1970  -17.2520    2.5790 C.ar  240  PHE240     -0.0200
     94  CD1       40.8160  -18.4990    2.1040 C.ar  240  PHE240     -0.0042
     95  CD2       41.6900  -17.1540    3.8770 C.ar  240  PHE240     -0.0042
     96  CE1       40.9170  -19.6310    2.9090 C.ar  240  PHE240     -0.0003
     97  CE2       41.7950  -18.2800    4.6880 C.ar  240  PHE240     -0.0003
     98  CZ        41.4050  -19.5210    4.2000 C.ar  240  PHE240     -0.0000
     99  N         35.2570  -14.2260    3.3060 N.3   243  ASN243     -0.1225
    100  CA        34.4240  -15.4080    3.5090 C.3   243  ASN243      0.1785
    101  C         35.0780  -16.7360    3.1290 C.2   243  ASN243      0.2597
    102  O         34.5450  -17.8010    3.4420 O.2   243  ASN243     -0.2718
    103  CB        33.1050  -15.2600    2.7550 C.3   243  ASN243      0.1169
    104  CG        33.2750  -15.4010    1.2630 C.2   243  ASN243      0.2627
    105  OD1       33.9210  -14.5740    0.6140 O.2   243  ASN243     -0.2716
    106  ND2       32.7160  -16.4670    0.7090 N.am  243  ASN243     -0.0877
    107  N         36.2140  -16.6870    2.4440 N.am  244  GLY244     -0.1957
    108  CA        36.8800  -17.9230    2.0690 C.3   244  GLY244      0.1869
    109  C         37.2480  -18.7770    3.2720 C.2   244  GLY244      0.2309
    110  O         37.2400  -20.0090    3.2000 O.2   244  GLY244     -0.2863
    111  N         34.9620  -21.8750    4.6470 N.3   247  SER247     -0.1217
    112  CA        34.9030  -23.1930    4.0110 C.3   247  SER247      0.1889
    113  C         35.8010  -24.2390    4.6630 C.2   247  SER247      0.2288
    114  O         36.6900  -23.9010    5.4440 O.2   247  SER247     -0.2866
    115  CB        35.2560  -23.0760    2.5270 C.3   247  SER247      0.2089
    116  OG        36.5700  -22.5770    2.3500 O.3   247  SER247     -0.2183
    117  N         38.0010  -25.9310    3.1860 N.3   249  TYR249     -0.1241
    118  CA        39.3260  -25.6230    2.6710 C.3   249  TYR249      0.1605
    119  C         39.9420  -24.5740    3.5850 C.2   249  TYR249      0.2264
    120  O         41.0500  -24.7560    4.0930 O.2   249  TYR249     -0.2867
    121  CB        39.2440  -25.0510    1.2560 C.3   249  TYR249      0.0534
    122  CG        40.4770  -24.2740    0.8570 C.ar  249  TYR249     -0.0201
    123  CD1       41.6240  -24.9290    0.4170 C.ar  249  TYR249     -0.0009
    124  CD2       40.5080  -22.8820    0.9530 C.ar  249  TYR249     -0.0009
    125  CE1       42.7770  -24.2180    0.0810 C.ar  249  TYR249      0.0417
    126  CE2       41.6500  -22.1630    0.6250 C.ar  249  TYR249      0.0417
    127  CZ        42.7790  -22.8370    0.1870 C.ar  249  TYR249      0.1957
    128  OH        43.8930  -22.1250   -0.1700 O.3   249  TYR249     -0.2866
@<TRIPOS>BOND
     1    24    25    2
     2    24    23    1
     3    34    31    1
     4    23    22    1
     5    23    26    1
     6    30    31    1
     7    31    32    1
     8    26    27    1
     9    70    69    1
    10    29    27    1
    11    49    48    1
    12    32    33    2
    13    32    35   am
    14    27    28    1
    15    17    18    2
    16    17    16    1
    17    48    50    1
    18    48    47    1
    19    69    66    1
    20    35    36    1
    21    16    19    1
    22    16    15    1
    23    68    67    2
    24    19    20    1
    25    19    21    1
    26    47    44    1
    27    66    67    1
    28    66    65    1
    29    78    76   ar
    30    67    71   am
    31    36    37    1
    32    36    39    1
    33    40    39    1
    34    40    42    1
    35    37    43   am
    36    37    38    2
    37    75    76    1
    38    75    72    1
    39    43    44    1
    40    76    77   ar
    41    39    41    1
    42    44    45    1
    43    65    60   am
    44    71    72    1
    45    72    73    1
    46    54    53    2
    47    87    85   am
    48    45    46    2
    49    45    51   am
    50    84    85    1
    51    84    83    1
    52    60    61    2
    53    60    59    1
    54    85    86    2
    55    83    80    1
    56    57    51    1
    57    57    56    1
    58    51    52    1
    59    73    74    2
    60    53    52    1
    61    53    58   am
    62    11    13   ar
    63    11     8   ar
    64    13    14   ar
    65    56    55    1
    66    59    58    1
    67    59    62    1
    68     4     3    2
    69     3     2    1
    70    52    55    1
    71     5     2    1
    72     5     6    1
    73    58    64    1
    74    80    79    1
    75    80    81    1
    76   128   127    1
    77    14    12   ar
    78     8     6   ar
    79     8    10   ar
    80    62    63    1
    81   125   127   ar
    82   125   123   ar
    83     2     1    1
    84   127   126   ar
    85     6     7   ar
    86   123   122   ar
    87    81    88   am
    88    81    82    2
    89   105   104    2
    90   126   124   ar
    91   106   104   am
    92    88    89    1
    93   122   124   ar
    94   122   121    1
    95    64    63    1
    96    10    12   ar
    97    10     9   ar
    98   121   118    1
    99   104   103    1
   100     7     9   ar
   101    92    89    1
   102    92    93    1
   103    89    90    1
   104   108   107    1
   105   108   109    1
   106    94    93   ar
   107    94    96   ar
   108   116   115    1
   109   107   101   am
   110   115   112    1
   111    93    95   ar
   112   118   117    1
   113   118   119    1
   114   103   100    1
   115    96    98   ar
   116   101   102    2
   117   101   100    1
   118    90    91    2
   119   110   109    2
   120    99   100    1
   121   119   120    2
   122    95    97   ar
   123   112   111    1
   124   112   113    1
   125    98    97   ar
   126   113   114    2
