@<TRIPOS>MOLECULE
tmp/1j10D00.pdb
 120 115 0 0 0
SMALL
GASTEIGER

@<TRIPOS>ATOM
      1  N         60.7370   -9.7790   14.9790 N.3   170  ALA170     -0.1245
      2  CA        60.7530   -8.9370   16.1720 C.3   170  ALA170      0.1562
      3  C         60.7670   -9.7480   17.4700 C.2   170  ALA170      0.2260
      4  O         60.4290   -9.2370   18.5340 O.2   170  ALA170     -0.2867
      5  CB        59.5740   -7.9620   16.1570 C.3   170  ALA170      0.0290
      6  N         58.9220  -12.3480   18.0670 N.3   172  GLU172     -0.1245
      7  CA        57.5870  -12.8540   18.3570 C.3   172  GLU172      0.1567
      8  C         57.2430  -14.0490   17.4810 C.2   172  GLU172      0.2260
      9  O         57.6830  -14.1280   16.3340 O.2   172  GLU172     -0.2867
     10  CB        56.5640  -11.7360   18.1520 C.3   172  GLU172      0.0388
     11  CG        56.8440  -10.5320   19.0300 C.3   172  GLU172      0.1160
     12  CD        56.3230   -9.2210   18.4640 C.2   172  GLU172      0.3649
     13  OE1       56.0550   -8.3170   19.2720 O.co2 172  GLU172     -0.2457
     14  OE2       56.1970   -9.0760   17.2290 O.co2 172  GLU172     -0.2457
     15  N         55.2860  -15.5000   15.1060 N.3   174  ARG174     -0.1245
     16  CA        54.3020  -15.0800   14.1100 C.3   174  ARG174      0.1563
     17  C         54.9520  -15.0550   12.7340 C.2   174  ARG174      0.2260
     18  O         56.1200  -15.4190   12.5780 O.2   174  ARG174     -0.2867
     19  CB        53.7740  -13.6750   14.4410 C.3   174  ARG174      0.0307
     20  CG        54.8390  -12.5820   14.3580 C.3   174  ARG174      0.0489
     21  CD        54.2850  -11.2060   14.6750 C.3   174  ARG174      0.2205
     22  NE        55.3210  -10.1770   14.6180 N.pl3 174  ARG174     -0.0865
     23  CZ        55.6680   -9.5260   13.5130 C.cat 174  ARG174      0.5346
     24  NH1       56.6210   -8.6010   13.5550 N.pl3 174  ARG174      0.1354
     25  NH2       55.0740   -9.8030   12.3590 N.pl3 174  ARG174      0.1354
     26  N         52.8520   -8.1420    8.6050 N.3   178  TYR178     -0.1241
     27  CA        52.7170   -6.6910    8.5580 C.3   178  TYR178      0.1605
     28  C         54.0470   -5.9640    8.3970 C.2   178  TYR178      0.2264
     29  O         54.8140   -5.8210    9.3530 O.2   178  TYR178     -0.2867
     30  CB        51.9220   -6.1600    9.7610 C.3   178  TYR178      0.0534
     31  CG        52.3420   -6.6450   11.1370 C.ar  178  TYR178     -0.0201
     32  CD1       53.1440   -5.8510   11.9610 C.ar  178  TYR178     -0.0009
     33  CD2       51.8630   -7.8490   11.6520 C.ar  178  TYR178     -0.0009
     34  CE1       53.4480   -6.2330   13.2570 C.ar  178  TYR178      0.0417
     35  CE2       52.1650   -8.2410   12.9600 C.ar  178  TYR178      0.0417
     36  CZ        52.9530   -7.4250   13.7520 C.ar  178  TYR178      0.1957
     37  OH        53.2270   -7.7860   15.0480 O.3   178  TYR178     -0.2866
     38  N         51.5740   -2.6820    6.4720 N.3   185  GLY185     -0.1210
     39  CA        51.8110   -2.0660    7.7620 C.3   185  GLY185      0.1956
     40  C         50.5120   -1.6140    8.4170 C.2   185  GLY185      0.2611
     41  O         49.4790   -1.4770    7.7540 O.2   185  GLY185     -0.2717
     42  N         50.5570   -1.4160    9.7310 N.am  186  TYR186     -0.1976
     43  CA        49.4020   -0.9560   10.4980 C.3   186  TYR186      0.1639
     44  C         48.8670    0.3280    9.8370 C.2   186  TYR186      0.2290
     45  O         49.6490    1.1800    9.4150 O.2   186  TYR186     -0.2864
     46  CB        49.8530   -0.6920   11.9470 C.3   186  TYR186      0.0560
     47  CG        48.8740    0.0730   12.8010 C.ar  186  TYR186     -0.0198
     48  CD1       47.9620   -0.5890   13.6160 C.ar  186  TYR186     -0.0009
     49  CD2       48.8500    1.4650   12.7780 C.ar  186  TYR186     -0.0009
     50  CE1       47.0430    0.1150   14.3880 C.ar  186  TYR186      0.0417
     51  CE2       47.9410    2.1810   13.5440 C.ar  186  TYR186      0.0417
     52  CZ        47.0390    1.5040   14.3460 C.ar  186  TYR186      0.1957
     53  OH        46.1490    2.2240   15.1120 O.3   186  TYR186     -0.2866
     54  N         52.7320  -11.4160   19.6010 N.3   289  ALA289     -0.1231
     55  CA        52.4650  -10.0190   19.2740 C.3   289  ALA289      0.1694
     56  C         51.0060   -9.6220   19.5210 C.2   289  ALA289      0.2592
     57  O         50.1120  -10.4750   19.5750 O.2   289  ALA289     -0.2718
     58  CB        52.8510   -9.7400   17.8320 C.3   289  ALA289      0.0304
     59  N         50.7840   -8.3300   19.7350 N.am  290  GLY290     -0.1957
     60  CA        49.4380   -7.8240   19.9380 C.3   290  GLY290      0.1869
     61  C         48.9600   -7.2410   18.6200 C.2   290  GLY290      0.2309
     62  O         49.1340   -6.0500   18.3710 O.2   290  GLY290     -0.2863
     63  N         46.3010   -6.0690   17.2500 N.3   292  HIS292     -0.1226
     64  CA        44.9950   -5.4990   17.5860 C.3   292  HIS292      0.1752
     65  C         44.1300   -4.8820   16.4840 C.2   292  HIS292      0.2596
     66  O         42.9290   -4.7240   16.6800 O.2   292  HIS292     -0.2718
     67  CB        45.1840   -4.4620   18.6990 C.3   292  HIS292      0.0759
     68  CG        46.1320   -3.3550   18.3380 C.ar  292  HIS292      0.0818
     69  ND1       45.7210   -2.1850   17.7340 N.ar  292  HIS292     -0.2268
     70  CD2       47.4750   -3.2500   18.4790 C.ar  292  HIS292      0.1154
     71  CE1       46.7670   -1.4090   17.5160 C.ar  292  HIS292      0.1986
     72  NE2       47.8440   -2.0320   17.9590 N.ar  292  HIS292     -0.2212
     73  N         44.7270   -4.4910   15.3610 N.am  293  TRP293     -0.1976
     74  CA        43.9640   -3.8640   14.2860 C.3   293  TRP293      0.1640
     75  C         43.2100   -4.8350   13.3910 C.2   293  TRP293      0.2290
     76  O         43.5570   -6.0160   13.3000 O.2   293  TRP293     -0.2864
     77  CB        44.8240   -2.8890   13.4680 C.3   293  TRP293      0.0576
     78  CG        46.0520   -3.4770   12.8130 C.ar  293  TRP293      0.0006
     79  CD1       46.2190   -3.7480   11.4810 C.ar  293  TRP293      0.0946
     80  CD2       47.3040   -3.7940   13.4430 C.ar  293  TRP293      0.0152
     81  NE1       47.4940   -4.2030   11.2440 N.ar  293  TRP293     -0.2442
     82  CE2       48.1810   -4.2440   12.4280 C.ar  293  TRP293      0.0810
     83  CE3       47.7710   -3.7380   14.7620 C.ar  293  TRP293      0.0012
     84  CZ2       49.4960   -4.6370   12.6930 C.ar  293  TRP293      0.0191
     85  CZ3       49.0780   -4.1290   15.0250 C.ar  293  TRP293      0.0001
     86  CH2       49.9260   -4.5740   13.9930 C.ar  293  TRP293      0.0015
     87  N         52.9360   -8.7720   24.1580 N.3   330  THR330     -0.1203
     88  CA        53.6070   -7.4980   23.9350 C.3   330  THR330      0.1994
     89  C         52.8360   -6.1860   23.7410 C.2   330  THR330      0.2618
     90  O         53.4150   -5.2210   23.2470 O.2   330  THR330     -0.2717
     91  CB        54.6150   -7.6480   22.7650 C.3   330  THR330      0.1784
     92  OG1       53.9260   -8.1090   21.5970 O.3   330  THR330     -0.2211
     93  CG2       55.6910   -8.6610   23.1130 C.3   330  THR330      0.0376
     94  N         51.5970   -6.0870   24.2130 N.am  331  CYS331     -0.1969
     95  CA        50.8330   -4.8480   24.0160 C.3   331  CYS331      0.1712
     96  C         49.8290   -4.5920   25.1490 C.2   331  CYS331      0.2296
     97  O         48.6430   -4.8690   24.9760 O.2   331  CYS331     -0.2864
     98  CB        50.1000   -4.9410   22.6650 C.3   331  CYS331      0.0983
     99  SG        49.3710   -3.4320   21.9930 S.3   331  CYS331     -0.0798
    100  N         47.5180    0.0490   25.7010 N.3   334  MET334     -0.1245
    101  CA        46.5500    0.6680   24.8100 C.3   334  MET334      0.1570
    102  C         45.0960    0.4690   25.2130 C.2   334  MET334      0.2261
    103  O         44.7790   -0.3600   26.0650 O.2   334  MET334     -0.2867
    104  CB        46.7690    0.1730   23.3890 C.3   334  MET334      0.0387
    105  CG        48.1500    0.4660   22.8470 C.3   334  MET334      0.0595
    106  SD        48.2720    0.0250   21.1200 S.3   334  MET334     -0.1393
    107  CE        49.9480    0.5690   20.7650 C.3   334  MET334      0.0692
    108  N         53.8620   -2.0500   23.8920 N.3   369  ALA369     -0.1231
    109  CA        54.2020   -2.0670   22.4740 C.3   369  ALA369      0.1694
    110  C         54.9690   -0.8400   22.0170 C.2   369  ALA369      0.2591
    111  O         55.8830   -0.9400   21.1980 O.2   369  ALA369     -0.2718
    112  CB        52.9390   -2.2490   21.6230 C.3   369  ALA369      0.0304
    113  N         54.6050    0.3200   22.5440 N.am  370  LEU370     -0.1980
    114  CA        55.2590    1.5610   22.1510 C.3   370  LEU370      0.1596
    115  C         55.7280    2.3030   23.3880 C.2   370  LEU370      0.2287
    116  O         55.2540    2.0380   24.4930 O.2   370  LEU370     -0.2864
    117  CB        54.2890    2.4330   21.3360 C.3   370  LEU370      0.0297
    118  CG        53.5310    1.7780   20.1640 C.3   370  LEU370      0.0022
    119  CD1       52.4640    2.7240   19.6240 C.3   370  LEU370      0.0001
    120  CD2       54.4900    1.3700   19.0520 C.3   370  LEU370      0.0001
@<TRIPOS>BOND
     1    38    39    1
     2    41    40    2
     3    39    40    1
     4    28    27    1
     5    28    29    2
     6    40    42   am
     7    27    26    1
     8    27    30    1
     9    45    44    2
    10    42    43    1
    11    30    31    1
    12    44    43    1
    13    43    46    1
    14    31    33   ar
    15    31    32   ar
    16    81    79   ar
    17    81    82   ar
    18    79    78   ar
    19    33    35   ar
    20    46    47    1
    21    32    34   ar
    22    25    23    1
    23    82    84   ar
    24    82    80   ar
    25    18    17    2
    26    84    86   ar
    27    17    16    1
    28    49    47   ar
    29    49    51   ar
    30    47    48   ar
    31    78    80   ar
    32    78    77    1
    33    35    36   ar
    34    34    36   ar
    35    76    75    2
    36    75    74    1
    37    80    83   ar
    38    77    74    1
    39    23    24    1
    40    23    22    2
    41    51    52   ar
    42    48    50   ar
    43    36    37    1
    44    86    85   ar
    45    16    19    1
    46    16    15    1
    47    74    73    1
    48    52    50   ar
    49    52    53    1
    50    20    19    1
    51    20    21    1
    52    22    21    1
    53    83    85   ar
    54     1     2    1
    55    73    65   am
    56     5     2    1
    57     2     3    1
    58     9     8    2
    59    65    66    2
    60    65    64    1
    61    14    12   ar
    62    63    64    1
    63     3     4    2
    64     8     7    1
    65    71    69   ar
    66    71    72   ar
    67    64    67    1
    68    69    68   ar
    69    58    55    1
    70    72    70   ar
    71     6     7    1
    72    10     7    1
    73    10    11    1
    74    68    70   ar
    75    68    67    1
    76    62    61    2
    77    12    11    1
    78    12    13   ar
    79    61    60    1
    80   120   118    1
    81    55    56    1
    82    55    54    1
    83    56    57    2
    84    56    59   am
    85   119   118    1
    86    59    60    1
    87   118   117    1
    88   107   106    1
    89   106   105    1
    90   111   110    2
    91   117   114    1
    92    92    91    1
    93   112   109    1
    94    99    98    1
    95   110   109    1
    96   110   113   am
    97   114   113    1
    98   114   115    1
    99   109   108    1
   100    98    95    1
   101    91    93    1
   102    91    88    1
   103   105   104    1
   104    90    89    2
   105   115   116    2
   106   104   101    1
   107    89    88    1
   108    89    94   am
   109    88    87    1
   110    95    94    1
   111    95    96    1
   112   101   102    1
   113   101   100    1
   114    97    96    2
   115   102   103    2
