@<TRIPOS>MOLECULE
tmp/1j11A00.pdb
 170 159 0 0 0
SMALL
GASTEIGER

@<TRIPOS>ATOM
      1  N         17.1950   52.2840   41.4270 N.3    16  MET16      -0.1245
      2  CA        17.0920   53.5500   40.7310 C.3    16  MET16       0.1570
      3  C         16.2380   53.4180   39.4880 C.2    16  MET16       0.2261
      4  O         16.4260   52.5050   38.6880 O.2    16  MET16      -0.2867
      5  CB        18.4730   54.0700   40.3390 C.3    16  MET16       0.0387
      6  CG        19.2530   54.6480   41.4850 C.3    16  MET16       0.0595
      7  SD        20.6280   55.6260   40.8880 S.3    16  MET16      -0.1393
      8  CE        21.6100   55.6890   42.3490 C.3    16  MET16       0.0692
      9  N         16.4200   57.4900   34.0310 N.3    19  LEU19      -0.1245
     10  CA        16.6240   58.9480   34.0500 C.3    19  LEU19       0.1561
     11  C         15.5100   59.6410   33.2470 C.2    19  LEU19       0.2260
     12  O         15.0940   60.7550   33.5730 O.2    19  LEU19      -0.2867
     13  CB        17.9970   59.3120   33.4600 C.3    19  LEU19       0.0270
     14  CG        19.2010   59.6450   34.3570 C.3    19  LEU19       0.0019
     15  CD1       18.9580   59.3220   35.8180 C.3    19  LEU19       0.0001
     16  CD2       20.4290   58.9290   33.8200 C.3    19  LEU19       0.0001
     17  N         13.9030   54.5880   43.7470 N.3    47  THR47      -0.1218
     18  CA        14.2780   55.9950   43.8790 C.3    47  THR47       0.1862
     19  C         14.0460   56.6130   42.5000 C.2    47  THR47       0.2287
     20  O         14.2990   55.9730   41.4730 O.2    47  THR47      -0.2866
     21  CB        15.7650   56.1980   44.3550 C.3    47  THR47       0.1770
     22  OG1       16.6820   55.8110   43.3250 O.3    47  THR47      -0.2211
     23  CG2       16.0580   55.3790   45.6050 C.3    47  THR47       0.0375
     24  N         14.1110   60.4020   40.0480 N.3    49  ASP49      -0.1239
     25  CA        14.4250   61.8110   39.8510 C.3    49  ASP49       0.1674
     26  C         13.2300   62.5600   39.2910 C.2    49  ASP49       0.2266
     27  O         12.6830   62.1860   38.2500 O.2    49  ASP49      -0.2867
     28  CB        15.5640   62.0040   38.8420 C.3    49  ASP49       0.1410
     29  CG        16.8920   61.5090   39.3440 C.2    49  ASP49       0.3668
     30  OD1       17.4770   62.1590   40.2390 O.co2  49  ASP49      -0.2456
     31  OD2       17.3600   60.4830   38.8120 O.co2  49  ASP49      -0.2456
     32  N         12.7160   65.9690   37.9230 N.3    51  TRP51      -0.1241
     33  CA        13.4940   67.1080   37.4570 C.3    51  TRP51       0.1605
     34  C         12.8760   68.4910   37.6020 C.2    51  TRP51       0.2264
     35  O         11.7320   68.7210   37.1920 O.2    51  TRP51      -0.2867
     36  CB        13.9200   66.8780   36.0040 C.3    51  TRP51       0.0550
     37  CG        14.6310   65.5860   35.8190 C.ar   51  TRP51       0.0003
     38  CD1       14.1470   64.4600   35.2150 C.ar   51  TRP51       0.0946
     39  CD2       15.9450   65.2590   36.2900 C.ar   51  TRP51       0.0152
     40  NE1       15.0780   63.4480   35.2900 N.ar   51  TRP51      -0.2442
     41  CE2       16.1900   63.9130   35.9450 C.ar   51  TRP51       0.0810
     42  CE3       16.9370   65.9720   36.9730 C.ar   51  TRP51       0.0012
     43  CZ2       17.3880   63.2660   36.2640 C.ar   51  TRP51       0.0191
     44  CZ3       18.1250   65.3280   37.2890 C.ar   51  TRP51       0.0001
     45  CH2       18.3410   63.9890   36.9350 C.ar   51  TRP51       0.0015
     46  N         13.4510   62.0850   44.4210 N.3    85  ILE85      -0.1245
     47  CA        14.6300   62.9210   44.5240 C.3    85  ILE85       0.1561
     48  C         14.2050   64.2340   43.8770 C.2    85  ILE85       0.2260
     49  O         13.8230   64.2550   42.7030 O.2    85  ILE85      -0.2867
     50  CB        15.8280   62.3280   43.7390 C.3    85  ILE85       0.0252
     51  CG1       16.1400   60.9090   44.2350 C.3    85  ILE85       0.0019
     52  CG2       17.0480   63.2370   43.8700 C.3    85  ILE85       0.0019
     53  CD1       17.0660   60.1360   43.3260 C.3    85  ILE85       0.0001
     54  N         18.9610   69.7720   39.8960 N.3    89  HIS89      -0.1226
     55  CA        20.1830   69.7180   39.1040 C.3    89  HIS89       0.1752
     56  C         19.8410   69.2780   37.6770 C.2    89  HIS89       0.2595
     57  O         18.7480   68.7590   37.4150 O.2    89  HIS89      -0.2718
     58  CB        21.2350   68.7870   39.7620 C.3    89  HIS89       0.0759
     59  CG        20.8570   67.3300   39.7900 C.ar   89  HIS89       0.0818
     60  ND1       20.1690   66.7550   40.8370 N.ar   89  HIS89      -0.2268
     61  CD2       21.1020   66.3300   38.9080 C.ar   89  HIS89       0.1154
     62  CE1       20.0040   65.4630   40.5980 C.ar   89  HIS89       0.1986
     63  NE2       20.5620   65.1830   39.4360 N.ar   89  HIS89      -0.2212
     64  N         20.7630   69.4980   36.7540 N.am   90  GLN90      -0.1979
     65  CA        20.5460   69.1320   35.3600 C.3    90  GLN90       0.1601
     66  C         20.7930   67.6590   35.0370 C.2    90  GLN90       0.2287
     67  O         21.7700   67.0750   35.5020 O.2    90  GLN90      -0.2864
     68  CB        21.4530   69.9690   34.4730 C.3    90  GLN90       0.0394
     69  CG        21.4640   69.5160   33.0350 C.3    90  GLN90       0.0908
     70  CD        22.5230   70.2130   32.2390 C.2    90  GLN90       0.2608
     71  OE1       22.5110   71.4330   32.1230 O.2    90  GLN90      -0.2717
     72  NE2       23.4760   69.4510   31.7140 N.am   90  GLN90      -0.0878
     73  N         26.6000   64.0490   33.1290 N.3    94  ASN94      -0.1225
     74  CA        27.3320   63.2670   34.1160 C.3    94  ASN94       0.1785
     75  C         27.4760   61.8090   33.6770 C.2    94  ASN94       0.2597
     76  O         26.8250   61.3710   32.7270 O.2    94  ASN94      -0.2718
     77  CB        26.6870   63.3860   35.4950 C.3    94  ASN94       0.1169
     78  CG        26.9060   64.7570   36.1200 C.2    94  ASN94       0.2627
     79  OD1       25.9930   65.5740   36.1810 O.2    94  ASN94      -0.2716
     80  ND2       28.1210   65.0130   36.5770 N.am   94  ASN94      -0.0877
     81  N         28.3570   61.0700   34.3430 N.am   95  VAL95      -0.1980
     82  CA        28.5950   59.6790   33.9750 C.3    95  VAL95       0.1595
     83  C         27.3520   58.7900   34.0670 C.2    95  VAL95       0.2287
     84  O         26.7700   58.5990   35.1390 O.2    95  VAL95      -0.2864
     85  CB        29.7870   59.0590   34.7610 C.3    95  VAL95       0.0276
     86  CG1       29.4770   58.9840   36.2510 C.3    95  VAL95       0.0022
     87  CG2       30.1290   57.6840   34.2000 C.3    95  VAL95       0.0022
     88  N         24.5880   59.4620   32.3350 N.3    97  ASP97      -0.1239
     89  CA        23.4160   60.2640   32.0190 C.3    97  ASP97       0.1674
     90  C         22.9150   60.1270   30.5890 C.2    97  ASP97       0.2266
     91  O         23.5740   60.5620   29.6430 O.2    97  ASP97      -0.2867
     92  CB        23.6660   61.7440   32.3330 C.3    97  ASP97       0.1410
     93  CG        23.5630   62.0510   33.8080 C.2    97  ASP97       0.3668
     94  OD1       23.6010   63.2390   34.1720 O.co2  97  ASP97      -0.2456
     95  OD2       23.4330   61.1100   34.6080 O.co2  97  ASP97      -0.2456
     96  N         24.7510   66.3550   39.7180 N.3   170  ALA170     -0.1231
     97  CA        24.4150   64.9330   39.7400 C.3   170  ALA170      0.1694
     98  C         23.6960   64.5410   41.0290 C.2   170  ALA170      0.2593
     99  O         23.5950   63.3640   41.3520 O.2   170  ALA170     -0.2718
    100  CB        25.6720   64.0810   39.5400 C.3   170  ALA170      0.0304
    101  N         23.1900   65.5300   41.7580 N.am  171  GLY171     -0.1942
    102  CA        22.4820   65.2590   42.9950 C.3   171  GLY171      0.2014
    103  C         23.3210   65.1280   44.2550 C.2   171  GLY171      0.2638
    104  O         22.7850   64.8130   45.3180 O.2   171  GLY171     -0.2714
    105  N         24.6170   65.4040   44.1630 N.am  172  GLU172     -0.1977
    106  CA        25.4890   65.2950   45.3270 C.3   172  GLU172      0.1602
    107  C         25.9450   66.6520   45.8450 C.2   172  GLU172      0.2287
    108  O         26.1010   67.5900   45.0740 O.2   172  GLU172     -0.2864
    109  CB        26.7170   64.4480   44.9890 C.3   172  GLU172      0.0415
    110  CG        26.3890   63.0060   44.7120 C.3   172  GLU172      0.1163
    111  CD        26.6390   62.6230   43.2810 C.2   172  GLU172      0.3649
    112  OE1       27.3930   63.2970   42.5770 O.co2 172  GLU172     -0.2457
    113  OE2       25.9760   61.4870   42.8050 O.co2 172  GLU172     -0.2457
    114  N         23.2510   63.3800   49.4050 N.3   287  LYS287     -0.1245
    115  CA        24.4150   62.5890   49.0220 C.3   287  LYS287      0.1561
    116  C         25.7780   63.2780   49.0250 C.2   287  LYS287      0.2260
    117  O         25.8930   64.4860   48.7930 O.2   287  LYS287     -0.2867
    118  CB        24.1780   61.9820   47.6360 C.3   287  LYS287      0.0271
    119  CG        22.8060   61.3570   47.4670 C.3   287  LYS287      0.0035
    120  CD        22.6210   60.8170   46.0730 C.3   287  LYS287      0.0206
    121  CE        21.2670   60.1610   45.9340 C.3   287  LYS287      0.1093
    122  NZ        21.1550   59.4930   44.6180 N.3   287  LYS287     -0.1314
    123  N         28.4510   57.0210   47.7430 N.3   330  THR330     -0.1218
    124  CA        28.5160   56.1900   46.5480 C.3   330  THR330      0.1862
    125  C         29.8050   55.3440   46.5230 C.2   330  THR330      0.2287
    126  O         30.6000   55.3880   47.4650 O.2   330  THR330     -0.2866
    127  CB        28.4330   57.0870   45.2980 C.3   330  THR330      0.1770
    128  OG1       29.6150   57.8840   45.2130 O.3   330  THR330     -0.2211
    129  CG2       27.2460   58.0500   45.4120 C.3   330  THR330      0.0375
    130  N         25.4320   53.5260   47.6030 N.3   367  GLU367     -0.1231
    131  CA        25.0370   53.2130   46.2410 C.3   367  GLU367      0.1699
    132  C         26.2710   52.9560   45.3790 C.2   367  GLU367      0.2592
    133  O         27.3870   53.3610   45.7340 O.2   367  GLU367     -0.2718
    134  CB        24.1240   54.3000   45.6360 C.3   367  GLU367      0.0402
    135  CG        24.7120   55.6760   45.5210 C.3   367  GLU367      0.1161
    136  CD        23.7120   56.6980   45.0090 C.2   367  GLU367      0.3649
    137  OE1       23.9750   57.3240   43.9680 O.co2 367  GLU367     -0.2457
    138  OE2       22.6620   56.8890   45.6500 O.co2 367  GLU367     -0.2457
    139  N         26.0970   52.1770   44.3170 N.am  368  ASN368     -0.1960
    140  CA        27.2050   51.8800   43.4200 C.3   368  ASN368      0.1819
    141  C         27.4320   53.0620   42.4900 C.2   368  ASN368      0.2621
    142  O         26.4910   53.7900   42.1500 O.2   368  ASN368     -0.2715
    143  CB        26.9680   50.5900   42.6200 C.3   368  ASN368      0.1195
    144  CG        25.6950   50.6260   41.7970 C.2   368  ASN368      0.2630
    145  OD1       24.6080   50.7830   42.3370 O.2   368  ASN368     -0.2716
    146  ND2       25.8240   50.4470   40.4920 N.am  368  ASN368     -0.0877
    147  N         28.6910   53.2770   42.1210 N.am  369  ALA369     -0.1977
    148  CA        29.0380   54.3810   41.2430 C.3   369  ALA369      0.1597
    149  C         28.7180   54.0700   39.7900 C.2   369  ALA369      0.2287
    150  O         28.1110   54.8840   39.0960 O.2   369  ALA369     -0.2864
    151  CB        30.5060   54.7320   41.3960 C.3   369  ALA369      0.0319
    152  N         22.1050   51.1950   41.0130 N.3   396  LEU396     -0.1231
    153  CA        22.0430   51.9670   39.7880 C.3   396  LEU396      0.1693
    154  C         22.3710   50.9000   38.7310 C.2   396  LEU396      0.2591
    155  O         23.4460   50.3030   38.7900 O.2   396  LEU396     -0.2718
    156  CB        23.1190   53.0660   39.8200 C.3   396  LEU396      0.0284
    157  CG        23.3580   53.9650   38.6000 C.3   396  LEU396      0.0019
    158  CD1       24.0990   55.2410   39.0090 C.3   396  LEU396      0.0001
    159  CD2       24.1340   53.2100   37.5230 C.3   396  LEU396      0.0001
    160  N         21.4740   50.6290   37.7820 N.am  397  ARG397     -0.1980
    161  CA        20.1780   51.2880   37.6520 C.3   397  ARG397      0.1597
    162  C         19.1780   50.2970   37.0380 C.2   397  ARG397      0.2287
    163  O         19.5720   49.3150   36.4130 O.2   397  ARG397     -0.2864
    164  CB        20.3000   52.5120   36.7330 C.3   397  ARG397      0.0334
    165  CG        19.0250   53.3290   36.5960 C.3   397  ARG397      0.0492
    166  CD        19.2010   54.5100   35.6530 C.3   397  ARG397      0.2205
    167  NE        20.2820   55.4040   36.0770 N.pl3 397  ARG397     -0.0865
    168  CZ        20.1770   56.3440   37.0130 C.cat 397  ARG397      0.5346
    169  NH1       19.0300   56.5460   37.6520 N.pl3 397  ARG397      0.1354
    170  NH2       21.2290   57.0950   37.3040 N.pl3 397  ARG397      0.1354
@<TRIPOS>BOND
     1    91    90    2
     2    90    89    1
     3    72    70   am
     4    89    92    1
     5    89    88    1
     6    71    70    2
     7    70    69    1
     8    92    93    1
     9    76    75    2
    10    69    68    1
    11    73    74    1
    12    11    12    2
    13    11    10    1
    14    13    10    1
    15    13    14    1
    16    75    74    1
    17    75    81   am
    18    93    94   ar
    19    93    95   ar
    20    16    14    1
    21    82    83    1
    22    82    81    1
    23    82    85    1
    24     9    10    1
    25    83    84    2
    26    74    77    1
    27    87    85    1
    28    14    15    1
    29    68    65    1
    30    85    86    1
    31    66    65    1
    32    66    67    2
    33    38    40   ar
    34    38    37   ar
    35    40    41   ar
    36    65    64    1
    37    77    78    1
    38   166   167    1
    39   166   165    1
    40    37    36    1
    41    37    39   ar
    42    41    43   ar
    43    41    39   ar
    44    36    33    1
    45   167   168    2
    46    78    79    2
    47    78    80   am
    48    43    45   ar
    49    39    42   ar
    50   163   162    2
    51   165   164    1
    52   164   161    1
    53    64    56   am
    54    45    44   ar
    55    42    44   ar
    56   168   170    1
    57   168   169    1
    58   162   161    1
    59    35    34    2
    60    57    56    2
    61    33    34    1
    62    33    32    1
    63   159   157    1
    64   161   160    1
    65    56    55    1
    66   160   154   am
    67    27    26    2
    68   157   158    1
    69   157   156    1
    70     4     3    2
    71   154   155    2
    72   154   153    1
    73    31    29   ar
    74    28    29    1
    75    28    25    1
    76    61    63   ar
    77    61    59   ar
    78   150   149    2
    79    55    58    1
    80    55    54    1
    81    26    25    1
    82    29    30   ar
    83    63    62   ar
    84     3     2    1
    85   100    97    1
    86    96    97    1
    87    97    98    1
    88    58    59    1
    89   153   156    1
    90   153   152    1
    91    59    60   ar
    92   149   148    1
    93    25    24    1
    94     5     2    1
    95     5     6    1
    96   146   144   am
    97    62    60   ar
    98     2     1    1
    99     7     6    1
   100     7     8    1
   101    98    99    2
   102    98   101   am
   103   148   151    1
   104   148   147    1
   105    20    19    2
   106   101   102    1
   107   144   145    2
   108   144   143    1
   109   147   141   am
   110   142   141    2
   111   141   140    1
   112    19    18    1
   113   112   111   ar
   114   143   140    1
   115    49    48    2
   116   113   111   ar
   117   102   103    1
   118   111   110    1
   119    22    21    1
   120    53    51    1
   121   140   139    1
   122    50    52    1
   123    50    51    1
   124    50    47    1
   125    17    18    1
   126    48    47    1
   127    18    21    1
   128   137   136   ar
   129   105   103   am
   130   105   106    1
   131   103   104    2
   132   139   132   am
   133    21    23    1
   134    46    47    1
   135   122   121    1
   136   110   109    1
   137   109   106    1
   138   136   135    1
   139   136   138   ar
   140   108   107    2
   141   128   127    1
   142   127   129    1
   143   127   124    1
   144   106   107    1
   145   132   133    2
   146   132   131    1
   147   135   134    1
   148   134   131    1
   149   121   120    1
   150   120   119    1
   151   131   130    1
   152   125   124    1
   153   125   126    2
   154   124   123    1
   155   119   118    1
   156   118   115    1
   157   117   116    2
   158   115   116    1
   159   115   114    1
