@<TRIPOS>MOLECULE
tmp/1j12B00.pdb
 169 159 0 0 0
SMALL
GASTEIGER

@<TRIPOS>ATOM
      1  N         15.1880   21.7530   12.9650 N.3    16  MET16      -0.1245
      2  CA        14.9050   22.6570   14.0720 C.3    16  MET16       0.1570
      3  C         15.0930   24.1090   13.6370 C.2    16  MET16       0.2261
      4  O         16.1040   24.4460   13.0200 O.2    16  MET16      -0.2867
      5  CB        15.8290   22.3320   15.2420 C.3    16  MET16       0.0387
      6  CG        15.4360   22.9510   16.5680 C.3    16  MET16       0.0595
      7  SD        13.8950   22.2960   17.2620 S.3    16  MET16      -0.1393
      8  CE        12.9270   23.8170   17.4690 C.3    16  MET16       0.0692
      9  N         16.5640   29.7590   17.2440 N.3    19  LEU19      -0.1245
     10  CA        16.0710   30.0020   18.5950 C.3    19  LEU19       0.1561
     11  C         15.3630   31.3600   18.6700 C.2    19  LEU19       0.2260
     12  O         14.4350   31.5430   19.4580 O.2    19  LEU19      -0.2867
     13  CB        17.2380   29.9150   19.5890 C.3    19  LEU19       0.0270
     14  CG        17.1510   28.9300   20.7600 C.3    19  LEU19       0.0019
     15  CD1       16.4310   27.6460   20.3920 C.3    19  LEU19       0.0001
     16  CD2       18.5470   28.6370   21.2640 C.3    19  LEU19       0.0001
     17  N         10.0950   26.6260   18.3920 N.3    49  ASP49      -0.1239
     18  CA         9.7300   27.0220   19.7470 C.3    49  ASP49       0.1674
     19  C          8.8290   28.2460   19.7220 C.2    49  ASP49       0.2266
     20  O          9.1170   29.2210   19.0230 O.2    49  ASP49      -0.2867
     21  CB        10.9700   27.3990   20.5600 C.3    49  ASP49       0.1410
     22  CG        11.8270   26.2150   20.9060 C.2    49  ASP49       0.3668
     23  OD1       11.5010   25.5210   21.8850 O.co2  49  ASP49      -0.2456
     24  OD2       12.8390   25.9890   20.2140 O.co2  49  ASP49      -0.2456
     25  N          7.6350   30.5410   22.4550 N.3    51  TRP51      -0.1241
     26  CA         7.8940   30.8910   23.8390 C.3    51  TRP51       0.1605
     27  C          6.7090   31.4300   24.6010 C.2    51  TRP51       0.2264
     28  O          6.0320   32.3490   24.1500 O.2    51  TRP51      -0.2867
     29  CB         9.0440   31.9120   23.9190 C.3    51  TRP51       0.0550
     30  CG        10.2730   31.4430   23.2260 C.ar   51  TRP51       0.0003
     31  CD1       10.7450   31.8680   22.0220 C.ar   51  TRP51       0.0946
     32  CD2       11.1230   30.3700   23.6380 C.ar   51  TRP51       0.0152
     33  NE1       11.8310   31.1120   21.6440 N.ar   51  TRP51      -0.2442
     34  CE2       12.0860   30.1830   22.6180 C.ar   51  TRP51       0.0810
     35  CE3       11.1640   29.5400   24.7690 C.ar   51  TRP51       0.0012
     36  CZ2       13.0770   29.1990   22.6890 C.ar   51  TRP51       0.0191
     37  CZ3       12.1500   28.5600   24.8430 C.ar   51  TRP51       0.0001
     38  CH2       13.0940   28.4010   23.8040 C.ar   51  TRP51       0.0015
     39  N          6.3040   23.8010   19.3640 N.3    85  ILE85      -0.1245
     40  CA         6.6560   23.3330   20.6950 C.3    85  ILE85       0.1561
     41  C          6.0950   24.4280   21.5810 C.2    85  ILE85       0.2260
     42  O          6.4250   25.6010   21.3860 O.2    85  ILE85      -0.2867
     43  CB         8.2040   23.2610   20.9220 C.3    85  ILE85       0.0252
     44  CG1        8.8620   22.3280   19.8990 C.3    85  ILE85       0.0019
     45  CG2        8.5190   22.7910   22.3490 C.3    85  ILE85       0.0019
     46  CD1       10.3840   22.2570   20.0130 C.3    85  ILE85       0.0001
     47  N          9.2010   27.2070   28.9450 N.3    89  HIS89      -0.1226
     48  CA        10.4690   27.3080   29.6650 C.3    89  HIS89       0.1752
     49  C         11.2590   28.4930   29.1180 C.2    89  HIS89       0.2596
     50  O         11.0140   28.9650   28.0090 O.2    89  HIS89      -0.2718
     51  CB        11.2970   26.0200   29.5220 C.3    89  HIS89       0.0759
     52  CG        11.7070   25.7240   28.1150 C.ar   89  HIS89       0.0818
     53  ND1       10.9310   24.9740   27.2580 N.ar   89  HIS89      -0.2268
     54  CD2       12.7820   26.1220   27.3960 C.ar   89  HIS89       0.1154
     55  CE1       11.5060   24.9280   26.0710 C.ar   89  HIS89       0.1986
     56  NE2       12.6320   25.6170   26.1280 N.ar   89  HIS89      -0.2212
     57  N         12.2130   28.9570   29.9080 N.am   90  GLN90      -0.1965
     58  CA        13.0560   30.0780   29.5430 C.3    90  GLN90       0.1733
     59  C         14.0580   29.7600   28.4410 C.2    90  GLN90       0.2616
     60  O         14.6560   28.6850   28.4380 O.2    90  GLN90      -0.2715
     61  CB        13.8320   30.5310   30.7720 C.3    90  GLN90       0.0408
     62  CG        14.8160   31.6340   30.5120 C.3    90  GLN90       0.0908
     63  CD        15.5690   32.0020   31.7490 C.2    90  GLN90       0.2608
     64  OE1       14.9820   32.1930   32.8090 O.2    90  GLN90      -0.2717
     65  NE2       16.8810   32.0740   31.6390 N.am   90  GLN90      -0.0878
     66  N         14.2000   30.6840   27.4910 N.am   91  CYS91      -0.1968
     67  CA        15.1830   30.5480   26.4240 C.3    91  CYS91       0.1712
     68  C         16.3570   31.3490   26.9630 C.2    91  CYS91       0.2296
     69  O         16.1830   32.4810   27.4270 O.2    91  CYS91      -0.2864
     70  CB        14.6990   31.1870   25.1270 C.3    91  CYS91       0.0983
     71  SG        15.6430   30.6720   23.6480 S.3    91  CYS91      -0.0798
     72  N         20.8690   27.8680   28.8030 N.3    94  ASN94      -0.1225
     73  CA        21.1860   26.4750   28.5140 C.3    94  ASN94       0.1785
     74  C         22.2330   26.4030   27.4210 C.2    94  ASN94       0.2597
     75  O         22.4490   27.3760   26.6970 O.2    94  ASN94      -0.2718
     76  CB        19.9330   25.6910   28.1200 C.3    94  ASN94       0.1169
     77  CG        19.0250   25.4180   29.3030 C.2    94  ASN94       0.2627
     78  OD1       19.4300   24.7870   30.2800 O.2    94  ASN94      -0.2716
     79  ND2       17.7930   25.8900   29.2240 N.am   94  ASN94      -0.0877
     80  N         22.8790   25.2460   27.3090 N.am   95  VAL95      -0.1980
     81  CA        23.9290   25.0340   26.3160 C.3    95  VAL95       0.1595
     82  C         23.4990   25.4620   24.9140 C.2    95  VAL95       0.2287
     83  O         22.5390   24.9230   24.3530 O.2    95  VAL95      -0.2864
     84  CB        24.3970   23.5500   26.2890 C.3    95  VAL95       0.0276
     85  CG1       25.5600   23.3750   25.3280 C.3    95  VAL95       0.0022
     86  CG2       24.7980   23.0970   27.6870 C.3    95  VAL95       0.0022
     87  N         22.1610   28.3730   24.0410 N.3    97  ASP97      -0.1239
     88  CA        21.0710   29.3300   23.9790 C.3    97  ASP97       0.1674
     89  C         21.5300   30.7130   23.5430 C.2    97  ASP97       0.2266
     90  O         22.2440   31.4090   24.2670 O.2    97  ASP97      -0.2867
     91  CB        20.3570   29.4280   25.3180 C.3    97  ASP97       0.1410
     92  CG        19.3930   28.2900   25.5560 C.2    97  ASP97       0.3668
     93  OD1       18.7860   28.2750   26.6410 O.co2  97  ASP97      -0.2456
     94  OD2       19.2210   27.4240   24.6800 O.co2  97  ASP97      -0.2456
     95  N         14.7940   23.5740   29.2340 N.3   170  ALA170     -0.1231
     96  CA        15.2150   23.2680   27.8640 C.3   170  ALA170      0.1694
     97  C         14.2010   22.3630   27.1420 C.2   170  ALA170      0.2593
     98  O         14.5470   21.6390   26.2010 O.2   170  ALA170     -0.2718
     99  CB        16.6180   22.6320   27.8490 C.3   170  ALA170      0.0304
    100  N         12.9450   22.4350   27.5720 N.am  171  GLY171     -0.1942
    101  CA        11.8990   21.6430   26.9520 C.3   171  GLY171      0.2014
    102  C         11.9700   20.1650   27.2510 C.2   171  GLY171      0.2638
    103  O         11.3150   19.3760   26.5830 O.2   171  GLY171     -0.2714
    104  N         12.7390   19.7900   28.2670 N.am  172  GLU172     -0.1977
    105  CA        12.8920   18.3920   28.6300 C.3   172  GLU172      0.1602
    106  C         12.3470   18.0940   30.0160 C.2   172  GLU172      0.2287
    107  O         12.4570   18.9120   30.9320 O.2   172  GLU172     -0.2864
    108  CB        14.3620   17.9870   28.5280 C.3   172  GLU172      0.0415
    109  CG        14.9010   18.0260   27.0950 C.3   172  GLU172      0.1163
    110  CD        16.2600   18.6960   26.9890 C.2   172  GLU172      0.3649
    111  OE1       16.8770   19.0500   27.9920 O.co2 172  GLU172     -0.2457
    112  OE2       16.7580   18.9160   25.7040 O.co2 172  GLU172     -0.2457
    113  N          9.9610   15.5750   25.5080 N.3   287  LYS287     -0.1245
    114  CA        11.3870   15.2470   25.4680 C.3   287  LYS287      0.1561
    115  C         12.0190   14.8310   26.7920 C.2   287  LYS287      0.2260
    116  O         11.7010   15.3700   27.8540 O.2   287  LYS287     -0.2867
    117  CB        12.1880   16.4290   24.9080 C.3   287  LYS287      0.0271
    118  CG        11.7180   16.9290   23.5590 C.3   287  LYS287      0.0035
    119  CD        12.7150   17.9260   22.9760 C.3   287  LYS287      0.0206
    120  CE        12.1740   18.5490   21.6940 C.3   287  LYS287      0.1093
    121  NZ        13.1540   19.4820   21.0640 N.3   287  LYS287     -0.1314
    122  N         17.7260   12.3790   23.1090 N.3   330  THR330     -0.1218
    123  CA        18.8580   13.0660   22.5030 C.3   330  THR330      0.1862
    124  C         20.1440   12.2250   22.4530 C.2   330  THR330      0.2287
    125  O         20.1430   11.0560   22.8420 O.2   330  THR330     -0.2866
    126  CB        19.1330   14.3580   23.2840 C.3   330  THR330      0.1770
    127  OG1       19.3240   14.0370   24.6670 O.3   330  THR330     -0.2211
    128  CG2       17.9470   15.3000   23.1800 C.3   330  THR330      0.0375
    129  N         16.9460   13.3420   18.4110 N.3   367  GLU367     -0.1231
    130  CA        17.5660   14.5680   17.9460 C.3   367  GLU367      0.1699
    131  C         18.9960   14.6000   18.4460 C.2   367  GLU367      0.2592
    132  O         19.3070   14.0170   19.4870 O.2   367  GLU367     -0.2718
    133  CB        16.7980   15.8080   18.4130 C.3   367  GLU367      0.0402
    134  CG        16.7230   16.0150   19.9130 C.3   367  GLU367      0.1161
    135  CD        15.7660   17.1410   20.3010 C.2   367  GLU367      0.3649
    136  OE1       16.1220   17.9680   21.1670 O.co2 367  GLU367     -0.2457
    137  OE2       14.6520   17.1990   19.7400 O.co2 367  GLU367     -0.2457
    138  N         19.8820   15.1990   17.6570 N.am  368  ASN368     -0.1960
    139  CA        21.2820   15.3150   18.0460 C.3   368  ASN368      0.1819
    140  C         21.3670   16.2790   19.2250 C.2   368  ASN368      0.2621
    141  O         20.5200   17.1630   19.3840 O.2   368  ASN368     -0.2715
    142  CB        22.1410   15.8180   16.8810 C.3   368  ASN368      0.1195
    143  CG        21.6580   17.1420   16.3270 C.2   368  ASN368      0.2630
    144  OD1       20.5050   17.2730   15.9100 O.2   368  ASN368     -0.2716
    145  ND2       22.5380   18.1280   16.3110 N.am  368  ASN368     -0.0877
    146  N         22.3740   16.0790   20.0700 N.am  369  ALA369     -0.1977
    147  CA        22.5680   16.9130   21.2510 C.3   369  ALA369      0.1597
    148  C         23.2140   18.2640   20.9170 C.2   369  ALA369      0.2287
    149  O         22.7300   19.3230   21.3280 O.2   369  ALA369     -0.2864
    150  CB        23.4100   16.1540   22.2820 C.3   369  ALA369      0.0319
    151  N         19.3580   19.6030   14.8230 N.3   396  LEU396     -0.1231
    152  CA        19.6710   20.8870   15.4340 C.3   396  LEU396      0.1693
    153  C         20.9660   21.3110   14.7360 C.2   396  LEU396      0.2591
    154  O         21.9770   20.6040   14.8330 O.2   396  LEU396     -0.2718
    155  CB        19.9270   20.7350   16.9360 C.3   396  LEU396      0.0284
    156  CG        18.7510   20.9200   17.8930 C.3   396  LEU396      0.0019
    157  CD1       17.7720   19.7530   17.7980 C.3   396  LEU396      0.0001
    158  CD2       19.2970   21.0500   19.3010 C.3   396  LEU396      0.0001
    159  N         20.9480   22.4280   14.0140 N.am  397  ARG397     -0.1980
    160  CA        19.7840   23.2880   13.8750 C.3   397  ARG397      0.1597
    161  C         19.8500   23.9730   12.5180 C.2   397  ARG397      0.2287
    162  O         20.8930   23.9810   11.8710 O.2   397  ARG397     -0.2864
    163  CB        19.8360   24.3380   14.9840 C.3   397  ARG397      0.0334
    164  CG        18.6810   25.3000   15.0500 C.3   397  ARG397      0.0492
    165  CD        18.9000   26.2920   16.1840 C.3   397  ARG397      0.2205
    166  NE        19.0140   25.6280   17.4830 N.pl3 397  ARG397     -0.0865
    167  CZ        17.9810   25.2990   18.2530 C.cat 397  ARG397      0.5346
    168  NH1       16.7410   25.5790   17.8630 N.pl3 397  ARG397      0.1354
    169  NH2       18.1800   24.6610   19.3990 N.pl3 397  ARG397      0.1354
@<TRIPOS>BOND
     1   162   161    2
     2   161   160    1
     3     1     2    1
     4     4     3    2
     5     3     2    1
     6   160   159    1
     7   160   163    1
     8   159   153   am
     9     2     5    1
    10   153   154    2
    11   153   152    1
    12   151   152    1
    13   163   164    1
    14   164   165    1
    15     5     6    1
    16   152   155    1
    17   144   143    2
    18   165   166    1
    19   145   143   am
    20   143   142    1
    21     6     7    1
    22   142   139    1
    23   155   156    1
    24     9    10    1
    25     7     8    1
    26   166   167    2
    27   138   139    1
    28   138   131   am
    29   157   156    1
    30   168   167    1
    31   156   158    1
    32   130   129    1
    33   130   133    1
    34   130   131    1
    35   139   140    1
    36   167   169    1
    37    17    18    1
    38   133   134    1
    39   131   132    2
    40    10    11    1
    41    10    13    1
    42    11    12    2
    43    20    19    2
    44   140   141    2
    45   140   146   am
    46    39    40    1
    47    13    14    1
    48    19    18    1
    49   137   135   ar
    50    18    21    1
    51    44    46    1
    52    44    43    1
    53   134   135    1
    54   146   147    1
    55    24    22   ar
    56   135   136   ar
    57    15    14    1
    58    21    22    1
    59    40    43    1
    60    40    41    1
    61    14    16    1
    62    22    23   ar
    63   148   147    1
    64   148   149    2
    65    43    45    1
    66   121   120    1
    67   147   150    1
    68    42    41    2
    69    33    31   ar
    70    33    34   ar
    71   120   119    1
    72    31    30   ar
    73   124   123    1
    74   124   125    2
    75    25    26    1
    76   123   122    1
    77   123   126    1
    78    34    36   ar
    79    34    32   ar
    80    36    38   ar
    81   119   118    1
    82   128   126    1
    83    30    32   ar
    84    30    29    1
    85   126   127    1
    86    89    88    1
    87    89    90    2
    88   118   117    1
    89    32    35   ar
    90    71    70    1
    91    38    37   ar
    92    26    29    1
    93    26    27    1
    94    88    87    1
    95    88    91    1
    96    28    27    2
    97    83    82    2
    98    94    92   ar
    99    35    37   ar
   100   117   114    1
   101    82    81    1
   102    70    67    1
   103    91    92    1
   104    85    84    1
   105   114   113    1
   106   114   115    1
   107    92    93   ar
   108   112   110   ar
   109    55    56   ar
   110    55    53   ar
   111    56    54   ar
   112    98    97    2
   113    84    81    1
   114    84    86    1
   115    81    80    1
   116    67    68    1
   117    67    66    1
   118   103   102    2
   119    75    74    2
   120   115   116    2
   121   101   102    1
   122   101   100    1
   123    68    69    2
   124   110   109    1
   125   110   111   ar
   126   109   108    1
   127    97   100   am
   128    97    96    1
   129   102   104   am
   130    53    52   ar
   131    80    74   am
   132    54    52   ar
   133    74    73    1
   134    66    59   am
   135    99    96    1
   136    96    95    1
   137    50    49    2
   138    52    51    1
   139    76    73    1
   140    76    77    1
   141   104   105    1
   142    60    59    2
   143    59    58    1
   144    73    72    1
   145   108   105    1
   146   105   106    1
   147    47    48    1
   148    49    48    1
   149    49    57   am
   150    79    77   am
   151    77    78    2
   152    51    48    1
   153    58    57    1
   154    58    61    1
   155   106   107    2
   156    62    61    1
   157    62    63    1
   158    65    63   am
   159    63    64    2
