@<TRIPOS>MOLECULE
tmp/1j14A00.pdb
 129 129 0 0 0
SMALL
GASTEIGER

@<TRIPOS>ATOM
      1  N         14.5540   39.7020   56.0010 N.3    40  HIS40      -0.1241
      2  CA        13.7730   39.8100   57.2260 C.3    40  HIS40       0.1621
      3  C         12.4400   39.0620   57.1850 C.2    40  HIS40       0.2264
      4  O         11.7170   39.0400   58.1720 O.2    40  HIS40      -0.2867
      5  CB        13.6350   41.2780   57.6780 C.3    40  HIS40       0.0745
      6  CG        12.4210   41.9920   57.1620 C.ar   40  HIS40       0.0817
      7  ND1       12.4650   42.8680   56.0960 N.ar   40  HIS40      -0.2268
      8  CD2       11.1570   42.0460   57.6370 C.ar   40  HIS40       0.1154
      9  CE1       11.2830   43.4320   55.9450 C.ar   40  HIS40       0.1986
     10  NE2       10.4720   42.9520   56.8680 N.ar   40  HIS40      -0.2212
     11  N          2.6580   55.1040   50.5720 N.3   171  ASP171     -0.1225
     12  CA         3.8790   54.3870   50.9590 C.3   171  ASP171      0.1805
     13  C          3.5810   52.8950   51.0980 C.2   171  ASP171      0.2598
     14  O          2.4250   52.4780   51.0400 O.2   171  ASP171     -0.2718
     15  CB         4.3140   54.9250   52.3360 C.3   171  ASP171      0.1424
     16  CG         5.7410   54.5560   52.7220 C.2   171  ASP171      0.3668
     17  OD1        6.4970   53.9780   51.9120 O.co2 171  ASP171     -0.2456
     18  OD2        6.1080   54.8930   53.8660 O.co2 171  ASP171     -0.2456
     19  N          4.6290   52.0870   51.1950 N.am  172  SER172     -0.1938
     20  CA         4.4740   50.6570   51.4270 C.3   172  SER172      0.2055
     21  C          4.4180   50.5550   52.9570 C.2   172  SER172      0.2643
     22  O          4.7500   51.5230   53.6540 O.2   172  SER172     -0.2714
     23  CB         5.6670   49.8740   50.8670 C.3   172  SER172      0.2130
     24  OG         6.8880   50.4020   51.3560 O.3   172  SER172     -0.2179
     25  N          4.0410   49.4010   53.4920 N.am  173  CYS173     -0.1953
     26  CA         3.9350   49.2540   54.9380 C.3   173  CYS173      0.1843
     27  C          4.1380   47.7840   55.3120 C.2   173  CYS173      0.2625
     28  O          4.3970   46.9540   54.4320 O.2   173  CYS173     -0.2714
     29  CB         2.5580   49.7650   55.3880 C.3   173  CYS173      0.0997
     30  SG         2.3560   50.0700   57.1690 S.3   173  CYS173     -0.0797
     31  N          4.0650   47.4640   56.6040 N.am  174  GLN174     -0.1977
     32  CA         4.2390   46.0820   57.0540 C.3   174  GLN174      0.1601
     33  C          3.3460   45.1280   56.2610 C.2   174  GLN174      0.2287
     34  O          2.1630   45.4130   56.0340 O.2   174  GLN174     -0.2864
     35  CB         3.9500   45.9410   58.5550 C.3   174  GLN174      0.0394
     36  CG         5.1260   46.2830   59.4760 C.3   174  GLN174      0.0908
     37  CD         5.2830   47.7770   59.7380 C.2   174  GLN174      0.2608
     38  OE1        4.3490   48.5600   59.5520 O.2   174  GLN174     -0.2717
     39  NE2        6.4620   48.1740   60.1850 N.am  174  GLN174     -0.0878
     40  N          6.5290   43.9560   52.8570 N.3   177  SER177     -0.1217
     41  CA         7.9260   43.5650   52.9680 C.3   177  SER177      0.1889
     42  C          8.2820   42.3430   52.1250 C.2   177  SER177      0.2288
     43  O          7.5500   41.3540   52.1010 O.2   177  SER177     -0.2866
     44  CB         8.2880   43.3510   54.4370 C.3   177  SER177      0.2089
     45  OG         8.4310   44.6040   55.0800 O.3   177  SER177     -0.2183
     46  N         10.8650   45.8160   49.1830 N.3   191  VAL191     -0.1231
     47  CA        10.3540   46.5000   50.3720 C.3   191  VAL191      0.1692
     48  C         11.1480   46.0260   51.5890 C.2   191  VAL191      0.2593
     49  O         11.1710   44.8270   51.9010 O.2   191  VAL191     -0.2718
     50  CB         8.8490   46.2380   50.5880 C.3   191  VAL191      0.0266
     51  CG1        8.3620   46.9840   51.8230 C.3   191  VAL191      0.0020
     52  CG2        8.0490   46.6670   49.3610 C.3   191  VAL191      0.0020
     53  N         11.7870   46.9650   52.2760 N.am  192  SER192     -0.1938
     54  CA        12.6150   46.6250   53.4150 C.3   192  SER192      0.2055
     55  C         12.1610   47.2380   54.7290 C.2   192  SER192      0.2643
     56  O         11.7250   46.5150   55.6230 O.2   192  SER192     -0.2714
     57  CB        14.0710   47.0030   53.1160 C.3   192  SER192      0.2130
     58  OG        14.9590   46.5380   54.1140 O.3   192  SER192     -0.2179
     59  N         12.2440   48.5590   54.8500 N.am  193  TRP193     -0.1959
     60  CA        11.8560   49.2100   56.0950 C.3   193  TRP193      0.1771
     61  C         11.4730   50.6830   55.9600 C.2   193  TRP193      0.2620
     62  O         11.3370   51.2100   54.8520 O.2   193  TRP193     -0.2715
     63  CB        12.9780   49.0580   57.1390 C.3   193  TRP193      0.0590
     64  CG        14.2790   49.7070   56.7560 C.ar  193  TRP193      0.0006
     65  CD1       15.2330   49.1970   55.9260 C.ar  193  TRP193      0.0946
     66  CD2       14.7600   50.9920   57.1780 C.ar  193  TRP193      0.0152
     67  NE1       16.2740   50.0800   55.8000 N.ar  193  TRP193     -0.2442
     68  CE2       16.0150   51.1890   56.5610 C.ar  193  TRP193      0.0810
     69  CE3       14.2540   51.9950   58.0190 C.ar  193  TRP193      0.0012
     70  CZ2       16.7720   52.3520   56.7480 C.ar  193  TRP193      0.0191
     71  CZ3       15.0070   53.1510   58.2060 C.ar  193  TRP193      0.0001
     72  CH2       16.2570   53.3170   57.5720 C.ar  193  TRP193      0.0015
     73  N         11.2490   51.3270   57.0990 N.am  194  GLY194     -0.1940
     74  CA        10.8860   52.7280   57.1180 C.3   194  GLY194      0.2014
     75  C         10.3280   53.0950   58.4790 C.2   194  GLY194      0.2639
     76  O          9.9250   52.2170   59.2440 O.2   194  GLY194     -0.2714
     77  N         10.3280   54.3830   58.7980 N.am  195  TYR195     -0.1959
     78  CA         9.7980   54.8480   60.0700 C.3   195  TYR195      0.1771
     79  C          8.3120   55.1240   59.8960 C.2   195  TYR195      0.2620
     80  O          7.9250   56.0780   59.2240 O.2   195  TYR195     -0.2715
     81  CB        10.5240   56.1140   60.5330 C.3   195  TYR195      0.0574
     82  CG         9.9120   56.7550   61.7650 C.ar  195  TYR195     -0.0198
     83  CD1        9.0340   57.8320   61.6470 C.ar  195  TYR195     -0.0009
     84  CD2       10.1830   56.2640   63.0430 C.ar  195  TYR195     -0.0009
     85  CE1        8.4390   58.4000   62.7640 C.ar  195  TYR195      0.0417
     86  CE2        9.5900   56.8270   64.1700 C.ar  195  TYR195      0.0417
     87  CZ         8.7170   57.8920   64.0220 C.ar  195  TYR195      0.1957
     88  OH         8.1030   58.4380   65.1250 O.3   195  TYR195     -0.2866
     89  N          7.4820   54.2780   60.4930 N.am  196  GLY196     -0.1940
     90  CA         6.0530   54.4550   60.3720 C.3   196  GLY196      0.2014
     91  C          5.6000   54.0830   58.9750 C.2   196  GLY196      0.2639
     92  O          6.3080   53.3790   58.2440 O.2   196  GLY196     -0.2714
     93  N          4.4110   54.5360   58.6050 N.am  197  CYS197     -0.1967
     94  CA         3.8680   54.2520   57.2870 C.3   197  CYS197      0.1712
     95  C          3.1550   55.4610   56.7230 C.2   197  CYS197      0.2296
     96  O          2.2440   56.0010   57.3440 O.2   197  CYS197     -0.2864
     97  CB         2.9150   53.0540   57.3400 C.3   197  CYS197      0.0983
     98  SG         3.7630   51.4600   57.6070 S.3   197  CYS197     -0.0798
     99  N          9.3130   60.7830   55.9040 N.3   202  ASN202     -0.1240
    100  CA         9.7540   59.4320   56.2340 C.3   202  ASN202      0.1653
    101  C          9.3640   58.4530   55.1250 C.2   202  ASN202      0.2266
    102  O          8.4570   57.6280   55.3000 O.2   202  ASN202     -0.2867
    103  CB         9.1580   58.9660   57.5690 C.3   202  ASN202      0.1155
    104  CG         9.7280   59.7140   58.7630 C.2   202  ASN202      0.2627
    105  OD1       10.7570   59.3300   59.3180 O.2   202  ASN202     -0.2716
    106  ND2        9.0570   60.7900   59.1680 N.am  202  ASN202     -0.0877
    107  N          9.7060   55.3000   52.3140 N.3   204  GLY204     -0.1210
    108  CA        10.0820   53.9130   52.5080 C.3   204  GLY204      0.1956
    109  C         11.4970   53.6500   52.0210 C.2   204  GLY204      0.2612
    110  O         11.9630   54.2760   51.0620 O.2   204  GLY204     -0.2717
    111  N         12.1660   52.7100   52.6710 N.am  205  VAL205     -0.1965
    112  CA        13.5300   52.3450   52.3210 C.3   205  VAL205      0.1727
    113  C         13.4820   50.9550   51.7040 C.2   205  VAL205      0.2616
    114  O         12.8070   50.0520   52.2190 O.2   205  VAL205     -0.2715
    115  CB        14.4370   52.3410   53.5660 C.3   205  VAL205      0.0290
    116  CG1       15.8870   52.1770   53.1590 C.3   205  VAL205      0.0023
    117  CG2       14.2410   53.6190   54.3640 C.3   205  VAL205      0.0023
    118  N         14.1800   50.7940   50.5880 N.am  206  TYR206     -0.1974
    119  CA        14.1940   49.5370   49.8620 C.3   206  TYR206      0.1639
    120  C         15.6040   49.0490   49.5940 C.2   206  TYR206      0.2290
    121  O         16.5480   49.8360   49.5650 O.2   206  TYR206     -0.2864
    122  CB        13.4610   49.7170   48.5260 C.3   206  TYR206      0.0560
    123  CG        12.0420   50.2230   48.6760 C.ar  206  TYR206     -0.0198
    124  CD1       10.9580   49.3630   48.5370 C.ar  206  TYR206     -0.0009
    125  CD2       11.7860   51.5550   49.0050 C.ar  206  TYR206     -0.0009
    126  CE1        9.6570   49.8090   48.7200 C.ar  206  TYR206      0.0417
    127  CE2       10.4870   52.0110   49.1940 C.ar  206  TYR206      0.0417
    128  CZ         9.4290   51.1320   49.0530 C.ar  206  TYR206      0.1957
    129  OH         8.1430   51.5770   49.2480 O.3   206  TYR206     -0.2866
@<TRIPOS>BOND
     1   122   123    1
     2   122   119    1
     3   124   123   ar
     4   124   126   ar
     5   123   125   ar
     6   126   128   ar
     7   125   127   ar
     8   128   127   ar
     9   128   129    1
    10    46    47    1
    11    52    50    1
    12   121   120    2
    13   120   119    1
    14   119   118    1
    15    47    50    1
    16    47    48    1
    17    11    12    1
    18    50    51    1
    19   118   113   am
    20    23    24    1
    21    23    20    1
    22    12    13    1
    23    12    15    1
    24    14    13    2
    25   110   109    2
    26    13    19   am
    27    19    20    1
    28    20    21    1
    29    48    49    2
    30    48    53   am
    31   113   114    2
    32   113   112    1
    33    17    16   ar
    34   109   108    1
    35   109   111   am
    36    43    42    2
    37    42    41    1
    38    53    54    1
    39   107   108    1
    40   112   111    1
    41   112   115    1
    42    15    16    1
    43    16    18   ar
    44    40    41    1
    45    21    25   am
    46    21    22    2
    47    41    44    1
    48    57    54    1
    49    57    58    1
    50   116   115    1
    51    54    55    1
    52    25    26    1
    53   115   117    1
    54    28    27    2
    55    44    45    1
    56    55    59   am
    57    55    56    2
    58    59    60    1
    59    62    61    2
    60    26    27    1
    61    26    29    1
    62   101   102    2
    63   101   100    1
    64    27    31   am
    65    29    30    1
    66    67    65   ar
    67    67    68   ar
    68    99   100    1
    69    65    64   ar
    70     9     7   ar
    71     9    10   ar
    72    61    60    1
    73    61    73   am
    74     1     2    1
    75    34    33    2
    76    60    63    1
    77     7     6   ar
    78   100   103    1
    79    33    32    1
    80    68    70   ar
    81    68    66   ar
    82    31    32    1
    83    95    94    1
    84    95    96    2
    85    70    72   ar
    86    64    63    1
    87    64    66   ar
    88    10     8   ar
    89    32    35    1
    90    73    74    1
    91    74    75    1
    92     6     8   ar
    93     6     5    1
    94    30    98    1
    95    66    69   ar
    96     3     2    1
    97     3     4    2
    98     2     5    1
    99    94    97    1
   100    94    93    1
   101    97    98    1
   102   103   104    1
   103    72    71   ar
   104    69    71   ar
   105    92    91    2
   106    75    77   am
   107    75    76    2
   108    35    36    1
   109    93    91   am
   110   104   106   am
   111   104   105    2
   112    77    78    1
   113    91    90    1
   114    80    79    2
   115    36    37    1
   116    38    37    2
   117    37    39   am
   118    79    78    1
   119    79    89   am
   120    78    81    1
   121    90    89    1
   122    81    82    1
   123    83    82   ar
   124    83    85   ar
   125    82    84   ar
   126    85    87   ar
   127    84    86   ar
   128    87    86   ar
   129    87    88    1
