@<TRIPOS>MOLECULE
tmp/1j17A00.pdb
 167 168 0 0 0
SMALL
GASTEIGER

@<TRIPOS>ATOM
      1  N         14.5100   39.6070   55.9920 N.3    40  HIS40      -0.1241
      2  CA        13.7850   39.7480   57.2410 C.3    40  HIS40       0.1621
      3  C         12.4550   38.9820   57.2360 C.2    40  HIS40       0.2264
      4  O         11.8100   38.8490   58.2640 O.2    40  HIS40      -0.2867
      5  CB        13.6700   41.2280   57.6740 C.3    40  HIS40       0.0745
      6  CG        12.4860   41.9610   57.1270 C.ar   40  HIS40       0.0817
      7  ND1       12.5610   42.8050   56.0400 N.ar   40  HIS40      -0.2268
      8  CD2       11.2070   42.0290   57.5640 C.ar   40  HIS40       0.1154
      9  CE1       11.3840   43.3670   55.8360 C.ar   40  HIS40       0.1986
     10  NE2       10.5450   42.9130   56.7470 N.ar   40  HIS40      -0.2212
     11  N         20.2540   44.1970   62.3210 N.3    79  GLU79      -0.1231
     12  CA        20.1470   45.4620   63.0450 C.3    79  GLU79       0.1699
     13  C         19.9670   46.6720   62.1420 C.2    79  GLU79       0.2593
     14  O         19.1770   47.5590   62.4400 O.2    79  GLU79      -0.2718
     15  CB        21.3670   45.6730   63.9390 C.3    79  GLU79       0.0402
     16  CG        21.5030   44.6360   65.0410 C.3    79  GLU79       0.1161
     17  CD        22.6880   44.9000   65.9520 C.2    79  GLU79       0.3649
     18  OE1       23.7560   44.2760   65.7440 O.co2  79  GLU79      -0.2457
     19  OE2       22.5470   45.7330   66.8770 O.co2  79  GLU79      -0.2457
     20  N         20.7000   46.6990   61.0370 N.am   80  THR80      -0.1939
     21  CA        20.6450   47.8140   60.0990 C.3    80  THR80       0.2028
     22  C         19.8140   47.5320   58.8610 C.2    80  THR80       0.2642
     23  O         19.5580   48.4320   58.0670 O.2    80  THR80      -0.2714
     24  CB        22.0430   48.1550   59.6150 C.3    80  THR80       0.1808
     25  OG1       22.6450   46.9770   59.0640 O.3    80  THR80      -0.2208
     26  CG2       22.8910   48.6520   60.7680 C.3    80  THR80       0.0379
     27  N         19.4490   46.2680   58.6800 N.am   81  TYR81      -0.1973
     28  CA        18.6840   45.8200   57.5220 C.3    81  TYR81       0.1639
     29  C         19.4970   45.8920   56.2330 C.2    81  TYR81       0.2290
     30  O         18.9480   45.8990   55.1370 O.2    81  TYR81      -0.2864
     31  CB        17.3720   46.5860   57.3800 C.3    81  TYR81       0.0560
     32  CG        16.2710   46.0250   58.2350 C.ar   81  TYR81      -0.0198
     33  CD1       16.3730   46.0240   59.6220 C.ar   81  TYR81      -0.0009
     34  CD2       15.1360   45.4690   57.6580 C.ar   81  TYR81      -0.0009
     35  CE1       15.3730   45.4770   60.4110 C.ar   81  TYR81       0.0417
     36  CE2       14.1320   44.9240   58.4330 C.ar   81  TYR81       0.0417
     37  CZ        14.2540   44.9260   59.8070 C.ar   81  TYR81       0.1957
     38  OH        13.2600   44.3570   60.5720 O.3    81  TYR81      -0.2866
     39  N         17.7300   56.6150   60.5060 N.3   154  PHE154     -0.1227
     40  CA        18.7430   55.5620   60.5620 C.3   154  PHE154      0.1736
     41  C         19.6930   55.6680   59.3710 C.2   154  PHE154      0.2595
     42  O         19.4020   56.3590   58.3880 O.2   154  PHE154     -0.2718
     43  CB        18.0760   54.1830   60.5830 C.3   154  PHE154      0.0547
     44  CG        17.0030   54.0440   61.6310 C.ar  154  PHE154     -0.0202
     45  CD1       17.3310   53.7240   62.9460 C.ar  154  PHE154     -0.0042
     46  CD2       15.6630   54.2550   61.3040 C.ar  154  PHE154     -0.0042
     47  CE1       16.3410   53.6180   63.9180 C.ar  154  PHE154     -0.0003
     48  CE2       14.6620   54.1520   62.2670 C.ar  154  PHE154     -0.0003
     49  CZ        15.0010   53.8320   63.5770 C.ar  154  PHE154     -0.0000
     50  N         20.8170   54.9670   59.4510 N.am  155  ILE155     -0.1980
     51  CA        21.7910   55.0030   58.3730 C.3   155  ILE155      0.1595
     52  C         21.3150   54.2490   57.1270 C.2   155  ILE155      0.2287
     53  O         20.8910   53.0930   57.1940 O.2   155  ILE155     -0.2864
     54  CB        23.1800   54.4790   58.8350 C.3   155  ILE155      0.0276
     55  CG1       24.2490   54.8240   57.7900 C.3   155  ILE155      0.0022
     56  CG2       23.1260   52.9730   59.1030 C.3   155  ILE155      0.0022
     57  CD1       25.6770   54.4860   58.2070 C.3   155  ILE155      0.0001
     58  N          2.6630   55.1800   50.8830 N.3   171  ASP171     -0.1225
     59  CA         3.8730   54.4480   51.2630 C.3   171  ASP171      0.1805
     60  C          3.5710   52.9550   51.3480 C.2   171  ASP171      0.2598
     61  O          2.4260   52.5370   51.2060 O.2   171  ASP171     -0.2718
     62  CB         4.2760   54.9380   52.6640 C.3   171  ASP171      0.1424
     63  CG         5.7400   54.6780   53.0220 C.2   171  ASP171      0.3668
     64  OD1        6.5040   54.1020   52.2240 O.co2 171  ASP171     -0.2456
     65  OD2        6.1310   55.0820   54.1370 O.co2 171  ASP171     -0.2456
     66  N          4.6100   52.1460   51.5070 N.am  172  ALA172     -0.1966
     67  CA         4.4290   50.7150   51.7120 C.3   172  ALA172      0.1728
     68  C          4.2700   50.6290   53.2490 C.2   172  ALA172      0.2616
     69  O          4.3520   51.6490   53.9470 O.2   172  ALA172     -0.2715
     70  CB         5.6580   49.9260   51.2310 C.3   172  ALA172      0.0334
     71  N          4.0250   49.4380   53.7790 N.am  173  CYS173     -0.1954
     72  CA         3.8490   49.2880   55.2130 C.3   173  CYS173      0.1843
     73  C          4.0290   47.8210   55.5750 C.2   173  CYS173      0.2625
     74  O          4.3820   47.0020   54.7210 O.2   173  CYS173     -0.2714
     75  CB         2.4500   49.7920   55.6120 C.3   173  CYS173      0.0997
     76  SG         2.2230   50.2090   57.3750 S.3   173  CYS173     -0.0797
     77  N          3.7770   47.4900   56.8380 N.am  174  GLN174     -0.1977
     78  CA         3.9010   46.1190   57.3280 C.3   174  GLN174      0.1601
     79  C          3.1010   45.1410   56.4560 C.2   174  GLN174      0.2287
     80  O          1.9560   45.4130   56.0930 O.2   174  GLN174     -0.2864
     81  CB         3.4360   46.0600   58.7910 C.3   174  GLN174      0.0394
     82  CG         3.4730   44.6720   59.4230 C.3   174  GLN174      0.0908
     83  CD         2.0850   44.1540   59.7430 C.2   174  GLN174      0.2608
     84  OE1        1.2470   43.9840   58.8520 O.2   174  GLN174     -0.2717
     85  NE2        1.8200   43.9240   61.0230 N.am  174  GLN174     -0.0878
     86  N          6.5070   43.9620   53.0160 N.3   177  SER177     -0.1217
     87  CA         7.8980   43.5250   53.0610 C.3   177  SER177      0.1889
     88  C          8.2310   42.3490   52.1580 C.2   177  SER177      0.2288
     89  O          7.4920   41.3700   52.0950 O.2   177  SER177     -0.2866
     90  CB         8.2750   43.1890   54.5020 C.3   177  SER177      0.2089
     91  OG         8.2210   44.3610   55.2750 O.3   177  SER177     -0.2183
     92  N         10.7800   45.7900   49.1410 N.3   191  VAL191     -0.1231
     93  CA        10.2360   46.4700   50.3210 C.3   191  VAL191      0.1692
     94  C         11.0030   45.9960   51.5520 C.2   191  VAL191      0.2593
     95  O         10.9740   44.8130   51.9000 O.2   191  VAL191     -0.2718
     96  CB         8.7230   46.2070   50.4960 C.3   191  VAL191      0.0266
     97  CG1        8.1900   46.9400   51.7290 C.3   191  VAL191      0.0020
     98  CG2        7.9600   46.6630   49.2500 C.3   191  VAL191      0.0020
     99  N         11.6770   46.9220   52.2160 N.am  192  SER192     -0.1938
    100  CA        12.4900   46.5520   53.3530 C.3   192  SER192      0.2055
    101  C         12.0470   47.1090   54.7090 C.2   192  SER192      0.2643
    102  O         11.5960   46.3580   55.5750 O.2   192  SER192     -0.2714
    103  CB        13.9440   46.9190   53.0480 C.3   192  SER192      0.2130
    104  OG        14.8240   46.4940   54.0690 O.3   192  SER192     -0.2179
    105  N         12.1220   48.4220   54.8770 N.am  193  TRP193     -0.1959
    106  CA        11.7610   49.0290   56.1480 C.3   193  TRP193      0.1771
    107  C         11.4410   50.5020   56.0220 C.2   193  TRP193      0.2620
    108  O         11.6270   51.1110   54.9740 O.2   193  TRP193     -0.2715
    109  CB        12.9040   48.8580   57.1580 C.3   193  TRP193      0.0590
    110  CG        14.1890   49.5650   56.7710 C.ar  193  TRP193      0.0006
    111  CD1       15.1880   49.0750   55.9750 C.ar  193  TRP193      0.0946
    112  CD2       14.6200   50.8710   57.1910 C.ar  193  TRP193      0.0152
    113  NE1       16.2090   49.9850   55.8830 N.ar  193  TRP193     -0.2442
    114  CE2       15.8880   51.0980   56.6180 C.ar  193  TRP193      0.0810
    115  CE3       14.0560   51.8730   58.0010 C.ar  193  TRP193      0.0012
    116  CZ2       16.6070   52.2850   56.8230 C.ar  193  TRP193      0.0191
    117  CZ3       14.7690   53.0540   58.2020 C.ar  193  TRP193      0.0001
    118  CH2       16.0300   53.2450   57.6170 C.ar  193  TRP193      0.0015
    119  N         10.9630   51.0690   57.1180 N.am  194  GLY194     -0.1940
    120  CA        10.6400   52.4760   57.1510 C.3   194  GLY194      0.2014
    121  C         10.2800   52.8370   58.5730 C.2   194  GLY194      0.2639
    122  O         10.0490   51.9590   59.4140 O.2   194  GLY194     -0.2714
    123  N         10.3290   54.1270   58.8590 N.am  195  TYR195     -0.1959
    124  CA         9.9730   54.6620   60.1620 C.3   195  TYR195      0.1771
    125  C          8.4970   55.0200   60.0090 C.2   195  TYR195      0.2620
    126  O          8.1570   56.0340   59.3840 O.2   195  TYR195     -0.2715
    127  CB        10.8130   55.9130   60.4360 C.3   195  TYR195      0.0574
    128  CG        10.4010   56.7160   61.6490 C.ar  195  TYR195     -0.0198
    129  CD1       10.9740   56.4800   62.9020 C.ar  195  TYR195     -0.0009
    130  CD2        9.4680   57.7460   61.5360 C.ar  195  TYR195     -0.0009
    131  CE1       10.6240   57.2590   64.0120 C.ar  195  TYR195      0.0417
    132  CE2        9.1130   58.5260   62.6330 C.ar  195  TYR195      0.0417
    133  CZ         9.6930   58.2820   63.8640 C.ar  195  TYR195      0.1957
    134  OH         9.3370   59.0710   64.9350 O.3   195  TYR195     -0.2866
    135  N          7.6240   54.1850   60.5480 N.am  196  GLY196     -0.1940
    136  CA         6.2020   54.4360   60.4120 C.3   196  GLY196      0.2014
    137  C          5.7390   54.0700   59.0100 C.2   196  GLY196      0.2639
    138  O          6.4400   53.3590   58.2840 O.2   196  GLY196     -0.2714
    139  N          4.5550   54.5430   58.6310 N.am  197  CYS197     -0.1967
    140  CA         3.9900   54.2860   57.3030 C.3   197  CYS197      0.1712
    141  C          3.2510   55.5150   56.7830 C.2   197  CYS197      0.2296
    142  O          2.3000   55.9800   57.4040 O.2   197  CYS197     -0.2864
    143  CB         2.9960   53.1220   57.3430 C.3   197  CYS197      0.0983
    144  SG         3.7110   51.5140   57.7730 S.3   197  CYS197     -0.0798
    145  N          9.6240   55.3400   52.4320 N.3   204  GLY204     -0.1210
    146  CA        10.0010   53.9600   52.6890 C.3   204  GLY204      0.1956
    147  C         11.3850   53.6560   52.1480 C.2   204  GLY204      0.2612
    148  O         11.8480   54.3130   51.2140 O.2   204  GLY204     -0.2717
    149  N         12.0430   52.6540   52.7230 N.am  205  VAL205     -0.1965
    150  CA        13.3830   52.2720   52.3050 C.3   205  VAL205      0.1727
    151  C         13.3640   50.8590   51.6990 C.2   205  VAL205      0.2616
    152  O         12.7520   49.9250   52.2370 O.2   205  VAL205     -0.2715
    153  CB        14.3920   52.3880   53.4780 C.3   205  VAL205      0.0290
    154  CG1       15.8020   52.2700   52.9690 C.3   205  VAL205      0.0023
    155  CG2       14.2260   53.7250   54.1910 C.3   205  VAL205      0.0023
    156  N         14.0360   50.7170   50.5650 N.am  206  TYR206     -0.1974
    157  CA        14.0580   49.4640   49.8270 C.3   206  TYR206      0.1639
    158  C         15.4650   48.9600   49.5370 C.2   206  TYR206      0.2290
    159  O         16.4100   49.7330   49.4840 O.2   206  TYR206     -0.2864
    160  CB        13.3220   49.6650   48.4950 C.3   206  TYR206      0.0560
    161  CG        11.9020   50.1590   48.6480 C.ar  206  TYR206     -0.0198
    162  CD1       10.8300   49.3050   48.4450 C.ar  206  TYR206     -0.0009
    163  CD2       11.6330   51.4720   49.0410 C.ar  206  TYR206     -0.0009
    164  CE1        9.5320   49.7320   48.6260 C.ar  206  TYR206      0.0417
    165  CE2       10.3300   51.9080   49.2350 C.ar  206  TYR206      0.0417
    166  CZ         9.2840   51.0290   49.0250 C.ar  206  TYR206      0.1957
    167  OH         7.9870   51.4350   49.2380 O.3   206  TYR206     -0.2866
@<TRIPOS>BOND
     1   162   164   ar
     2   162   161   ar
     3   160   161    1
     4   160   157    1
     5   164   166   ar
     6   161   163   ar
     7   166   165   ar
     8   166   167    1
     9   163   165   ar
    10    92    93    1
    11    98    96    1
    12   159   158    2
    13   158   157    1
    14   157   156    1
    15    93    96    1
    16    93    94    1
    17    96    97    1
    18   156   151   am
    19    58    59    1
    20    61    60    2
    21   148   147    2
    22    70    67    1
    23    59    60    1
    24    59    62    1
    25    60    66   am
    26    66    67    1
    27    94    95    2
    28    94    99   am
    29   151   152    2
    30   151   150    1
    31    67    68    1
    32    89    88    2
    33   147   146    1
    34   147   149   am
    35    88    87    1
    36    99   100    1
    37    64    63   ar
    38   150   149    1
    39   150   153    1
    40   145   146    1
    41    62    63    1
    42   154   153    1
    43    86    87    1
    44    63    65   ar
    45   103   100    1
    46   103   104    1
    47    87    90    1
    48    68    71   am
    49    68    69    2
    50   100   101    1
    51   153   155    1
    52    71    72    1
    53    90    91    1
    54   101   105   am
    55   101   102    2
    56    74    73    2
    57   105   106    1
    58   108   107    2
    59    30    29    2
    60    72    73    1
    61    72    75    1
    62    73    77   am
    63    75    76    1
    64     9     7   ar
    65     9    10   ar
    66   113   111   ar
    67   113   114   ar
    68   111   110   ar
    69     1     2    1
    70   107   106    1
    71   107   119   am
    72     7     6   ar
    73    80    79    2
    74   106   109    1
    75    29    28    1
    76    79    78    1
    77   114   116   ar
    78   114   112   ar
    79    10     8   ar
    80   110   109    1
    81   110   112   ar
    82   141   140    1
    83   141   142    2
    84   116   118   ar
    85    77    78    1
    86   119   120    1
    87     6     8   ar
    88     6     5    1
    89    52    53    2
    90    52    51    1
    91   120   121    1
    92   112   115   ar
    93     3     2    1
    94     3     4    2
    95     2     5    1
    96   140   143    1
    97   140   139    1
    98    78    81    1
    99   143   144    1
   100    76   144    1
   101    31    28    1
   102    31    32    1
   103    28    27    1
   104   118   117   ar
   105    34    32   ar
   106    34    36   ar
   107    55    57    1
   108    55    54    1
   109   115   117   ar
   110    23    22    2
   111    32    33   ar
   112   138   137    2
   113    51    54    1
   114    51    50    1
   115    42    41    2
   116    36    37   ar
   117   121   123   am
   118   121   122    2
   119   139   137   am
   120    27    22   am
   121    81    82    1
   122    54    56    1
   123    84    83    2
   124   123   124    1
   125    22    21    1
   126   137   136    1
   127    25    24    1
   128    41    50   am
   129    41    40    1
   130   126   125    2
   131    82    83    1
   132    24    21    1
   133    24    26    1
   134    33    35   ar
   135    83    85   am
   136    37    35   ar
   137    37    38    1
   138   125   124    1
   139   125   135   am
   140    21    20    1
   141   124   127    1
   142   136   135    1
   143   127   128    1
   144    39    40    1
   145    40    43    1
   146    43    44    1
   147    20    13   am
   148    46    44   ar
   149    46    48   ar
   150   130   128   ar
   151   130   132   ar
   152    44    45   ar
   153   128   129   ar
   154    13    14    2
   155    13    12    1
   156    48    49   ar
   157    11    12    1
   158   132   133   ar
   159   129   131   ar
   160    45    47   ar
   161    12    15    1
   162    49    47   ar
   163   133   131   ar
   164   133   134    1
   165    15    16    1
   166    16    17    1
   167    18    17   ar
   168    17    19   ar
