@<TRIPOS>MOLECULE
tmp/1j1bB00.pdb
 182 169 0 0 0
SMALL
GASTEIGER

@<TRIPOS>ATOM
      1  N         45.2310   -6.7810  -30.9910 N.3    40  ILE40      -0.1231
      2  CA        44.5660   -5.7450  -31.7690 C.3    40  ILE40       0.1692
      3  C         43.1050   -5.6140  -31.3620 C.2    40  ILE40       0.2593
      4  O         42.3580   -4.8260  -31.9360 O.2    40  ILE40      -0.2718
      5  CB        44.6340   -6.0370  -33.2920 C.3    40  ILE40       0.0266
      6  CG1       43.9760   -7.3840  -33.6070 C.3    40  ILE40       0.0019
      7  CG2       46.0840   -6.0180  -33.7580 C.3    40  ILE40       0.0020
      8  CD1       43.7540   -7.6230  -35.0890 C.3    40  ILE40       0.0001
      9  N         42.7040   -6.3900  -30.3630 N.am   41  GLY41      -0.1942
     10  CA        41.3290   -6.3350  -29.9110 C.3    41  GLY41       0.2014
     11  C         41.1160   -7.0930  -28.6220 C.2    41  GLY41       0.2639
     12  O         41.9670   -7.8740  -28.1980 O.2    41  GLY41      -0.2714
     13  N         39.9690   -6.8680  -27.9950 N.am   42  ASN42      -0.1958
     14  CA        39.6610   -7.5390  -26.7440 C.3    42  ASN42       0.1819
     15  C         38.1650   -7.6360  -26.5000 C.2    42  ASN42       0.2621
     16  O         37.3580   -6.9970  -27.1840 O.2    42  ASN42      -0.2715
     17  CB        40.3160   -6.8010  -25.5740 C.3    42  ASN42       0.1195
     18  CG        41.2030   -7.7040  -24.7370 C.2    42  ASN42       0.2630
     19  OD1       42.4280   -7.5380  -24.7060 O.2    42  ASN42      -0.2716
     20  ND2       40.5900   -8.6700  -24.0520 N.am   42  ASN42      -0.0877
     21  N         37.8190   -8.4470  -25.5060 N.am   43  GLY43      -0.1954
     22  CA        36.4360   -8.6560  -25.1260 C.3    43  GLY43       0.1869
     23  C         36.4340   -9.5400  -23.8950 C.2    43  GLY43       0.2309
     24  O         37.4170  -10.2410  -23.6390 O.2    43  GLY43      -0.2863
     25  N         35.2200  -12.1590  -23.5250 N.3    45  PHE45      -0.1227
     26  CA        35.3160  -13.5470  -23.9820 C.3    45  PHE45       0.1740
     27  C         36.7460  -13.9270  -24.3630 C.2    45  PHE45       0.2635
     28  O         37.2060  -15.0280  -24.0500 O.2    45  PHE45      -0.2714
     29  CB        34.3910  -13.7970  -25.1920 C.3    45  PHE45       0.0548
     30  CG        32.9950  -13.2160  -25.0480 C.ar   45  PHE45      -0.0202
     31  CD1       32.1960  -13.0160  -26.1750 C.ar   45  PHE45      -0.0042
     32  CD2       32.4850  -12.8540  -23.7980 C.ar   45  PHE45      -0.0042
     33  CE1       30.9120  -12.4640  -26.0640 C.ar   45  PHE45      -0.0003
     34  CE2       31.2040  -12.3000  -23.6760 C.ar   45  PHE45      -0.0003
     35  CZ        30.4170  -12.1050  -24.8130 C.ar   45  PHE45      -0.0000
     36  N         37.4470  -13.0210  -25.0410 N.am   46  GLY46      -0.1732
     37  CA        38.8110  -13.3220  -25.4390 C.2    46  GLY46       0.1340
     38  C         39.6700  -12.1580  -25.9000 C.2    46  GLY46       0.2521
     39  O         39.4460  -11.0060  -25.5230 O.2    46  GLY46      -0.2816
     40  N         41.9660  -10.7030  -29.5270 N.3    48  VAL48      -0.1245
     41  CA        42.2170  -10.8420  -30.9530 C.3    48  VAL48       0.1561
     42  C         43.6220  -10.3360  -31.2580 C.2    48  VAL48       0.2260
     43  O         43.9670   -9.2020  -30.9320 O.2    48  VAL48      -0.2867
     44  CB        41.2020  -10.0400  -31.7880 C.3    48  VAL48       0.0252
     45  CG1       41.4630  -10.2540  -33.2710 C.3    48  VAL48       0.0019
     46  CG2       39.7910  -10.4680  -31.4310 C.3    48  VAL48       0.0019
     47  N         44.1160  -12.2450  -38.5370 N.3    61  ALA61      -0.1245
     48  CA        43.7220  -11.9450  -37.1710 C.3    61  ALA61       0.1562
     49  C         43.4410  -13.2950  -36.5360 C.2    61  ALA61       0.2260
     50  O         42.9280  -14.1930  -37.1960 O.2    61  ALA61      -0.2867
     51  CB        42.4670  -11.0770  -37.1570 C.3    61  ALA61       0.0290
     52  N         41.4540  -14.8330  -33.3470 N.3    63  LYS63      -0.1245
     53  CA        40.5720  -14.6250  -32.2030 C.3    63  LYS63       0.1561
     54  C         40.7040  -15.8160  -31.2610 C.2    63  LYS63       0.2260
     55  O         40.3120  -16.9320  -31.5970 O.2    63  LYS63      -0.2867
     56  CB        39.1160  -14.4760  -32.6650 C.3    63  LYS63       0.0271
     57  CG        38.1310  -14.1990  -31.5360 C.3    63  LYS63       0.0035
     58  CD        36.7690  -13.7420  -32.0600 C.3    63  LYS63       0.0206
     59  CE        35.7960  -13.4980  -30.9140 C.3    63  LYS63       0.1093
     60  NZ        34.5060  -12.9350  -31.3870 N.3    63  LYS63      -0.1314
     61  N         33.5960  -11.4210  -42.6420 N.3    88  VAL88      -0.1245
     62  CA        34.9880  -11.8070  -42.4980 C.3    88  VAL88       0.1561
     63  C         35.1380  -13.3240  -42.6270 C.2    88  VAL88       0.2260
     64  O         34.3620  -14.0910  -42.0600 O.2    88  VAL88      -0.2867
     65  CB        35.5720  -11.2840  -41.1450 C.3    88  VAL88       0.0252
     66  CG1       35.0500  -12.1130  -39.9760 C.3    88  VAL88       0.0019
     67  CG2       37.0980  -11.2920  -41.2030 C.3    88  VAL88       0.0019
     68  N         41.2910  -15.4890  -38.8950 N.3   110  LEU110     -0.1231
     69  CA        40.4830  -14.7390  -39.8470 C.3   110  LEU110      0.1693
     70  C         41.2880  -13.8390  -40.7610 C.2   110  LEU110      0.2592
     71  O         42.4580  -13.5450  -40.4990 O.2   110  LEU110     -0.2718
     72  CB        39.4830  -13.8600  -39.0960 C.3   110  LEU110      0.0284
     73  CG        38.8320  -14.4530  -37.8550 C.3   110  LEU110      0.0019
     74  CD1       38.2150  -13.3420  -37.0100 C.3   110  LEU110      0.0001
     75  CD2       37.7790  -15.4590  -38.2850 C.3   110  LEU110      0.0001
     76  N         40.6460  -13.3980  -41.8400 N.am  111  ASP111     -0.1960
     77  CA        41.2830  -12.4700  -42.7560 C.3   111  ASP111      0.1840
     78  C         41.4310  -11.2060  -41.9100 C.2   111  ASP111      0.2622
     79  O         40.5470  -10.8820  -41.1100 O.2   111  ASP111     -0.2715
     80  CB        40.3730  -12.1670  -43.9450 C.3   111  ASP111      0.1450
     81  CG        40.5050  -13.1850  -45.0640 C.2   111  ASP111      0.3671
     82  OD1       39.6680  -13.1510  -45.9870 O.co2 111  ASP111     -0.2456
     83  OD2       41.4380  -14.0140  -45.0220 O.co2 111  ASP111     -0.2456
     84  N         42.5410  -10.5000  -42.0730 N.am  112  TYR112     -0.1960
     85  CA        42.7670   -9.2760  -41.3180 C.3   112  TYR112      0.1771
     86  C         42.2030   -8.0790  -42.0860 C.2   112  TYR112      0.2619
     87  O         42.4290   -7.9500  -43.2830 O.2   112  TYR112     -0.2715
     88  CB        44.2680   -9.0780  -41.0770 C.3   112  TYR112      0.0574
     89  CG        44.6110   -7.7260  -40.4930 C.ar  112  TYR112     -0.0198
     90  CD1       45.0310   -6.6800  -41.3120 C.ar  112  TYR112     -0.0009
     91  CD2       44.4670   -7.4780  -39.1270 C.ar  112  TYR112     -0.0009
     92  CE1       45.2950   -5.4190  -40.7870 C.ar  112  TYR112      0.0417
     93  CE2       44.7270   -6.2200  -38.5920 C.ar  112  TYR112      0.0417
     94  CZ        45.1380   -5.1960  -39.4300 C.ar  112  TYR112      0.1957
     95  OH        45.3820   -3.9430  -38.9130 O.3   112  TYR112     -0.2866
     96  N         41.4400   -7.2290  -41.4010 N.am  113  VAL113     -0.1977
     97  CA        40.8750   -6.0200  -42.0060 C.3   113  VAL113      0.1596
     98  C         41.4080   -4.9020  -41.1050 C.2   113  VAL113      0.2287
     99  O         41.2610   -4.9530  -39.8880 O.2   113  VAL113     -0.2864
    100  CB        39.3330   -6.0520  -42.0190 C.3   113  VAL113      0.0276
    101  CG1       38.7970   -4.8970  -42.8460 C.3   113  VAL113      0.0022
    102  CG2       38.8540   -7.3680  -42.6140 C.3   113  VAL113      0.0022
    103  N         37.6570   -0.1950  -38.6770 N.3   116  THR116     -0.1218
    104  CA        36.3140   -0.4970  -38.2260 C.3   116  THR116      0.1862
    105  C         35.4960    0.7710  -38.4480 C.2   116  THR116      0.2287
    106  O         36.0400    1.8830  -38.4440 O.2   116  THR116     -0.2866
    107  CB        36.2530   -0.8590  -36.7190 C.3   116  THR116      0.1770
    108  OG1       36.6490    0.2730  -35.9360 O.3   116  THR116     -0.2211
    109  CG2       37.1480   -2.0420  -36.4070 C.3   116  THR116      0.0375
    110  N         36.0840    3.2560  -35.5690 N.3   119  ARG119     -0.1245
    111  CA        37.2720    4.1060  -35.6030 C.3   119  ARG119      0.1563
    112  C         37.1730    5.1930  -36.6560 C.2   119  ARG119      0.2260
    113  O         37.5460    6.3340  -36.4110 O.2   119  ARG119     -0.2867
    114  CB        38.5220    3.2600  -35.8490 C.3   119  ARG119      0.0307
    115  CG        38.9500    2.4520  -34.6320 C.3   119  ARG119      0.0489
    116  CD        40.1820    1.6040  -34.9330 C.3   119  ARG119      0.2205
    117  NE        41.1900    2.3430  -35.6980 N.pl3 119  ARG119     -0.0865
    118  CZ        42.3150    1.8080  -36.1700 C.cat 119  ARG119      0.5346
    119  NH1       42.5820    0.5250  -35.9580 N.pl3 119  ARG119      0.1354
    120  NH2       43.1780    2.5580  -36.8480 N.pl3 119  ARG119      0.1354
    121  N         24.4190   -8.5390  -32.2560 N.3   159  ASP159     -0.1239
    122  CA        25.3810   -7.5770  -31.7330 C.3   159  ASP159      0.1674
    123  C         25.8770   -6.6360  -32.8220 C.2   159  ASP159      0.2266
    124  O         27.0710   -6.3650  -32.9160 O.2   159  ASP159     -0.2867
    125  CB        26.5730   -8.2790  -31.0780 C.3   159  ASP159      0.1410
    126  CG        27.3680   -7.3450  -30.1550 C.2   159  ASP159      0.3668
    127  OD1       26.7900   -6.3360  -29.6850 O.co2 159  ASP159     -0.2456
    128  OD2       28.5650   -7.6190  -29.9040 O.co2 159  ASP159     -0.2456
    129  N         26.8940   -3.3970  -34.3300 N.3   161  LYS161     -0.1245
    130  CA        27.3820   -2.1270  -33.7970 C.3   161  LYS161      0.1561
    131  C         28.6270   -1.7370  -34.5980 C.2   161  LYS161      0.2260
    132  O         29.2570   -2.5900  -35.2120 O.2   161  LYS161     -0.2867
    133  CB        27.7290   -2.2710  -32.3080 C.3   161  LYS161      0.0271
    134  CG        28.9160   -3.1810  -32.0340 C.3   161  LYS161      0.0035
    135  CD        29.1670   -3.3840  -30.5490 C.3   161  LYS161      0.0206
    136  CE        30.3250   -4.3360  -30.3320 C.3   161  LYS161      0.1093
    137  NZ        30.2680   -5.0220  -29.0100 N.3   161  LYS161     -0.1314
    138  N         31.7210   -1.1960  -33.9050 N.3   163  GLN163     -0.1231
    139  CA        32.9480   -1.9340  -33.6170 C.3   163  GLN163      0.1698
    140  C         32.9950   -3.3310  -34.2400 C.2   163  GLN163      0.2592
    141  O         34.0580   -3.9460  -34.3160 O.2   163  GLN163     -0.2718
    142  CB        33.1570   -2.0290  -32.1010 C.3   163  GLN163      0.0381
    143  CG        33.6990   -0.7360  -31.4920 C.3   163  GLN163      0.0905
    144  CD        33.2480   -0.5120  -30.0580 C.2   163  GLN163      0.2608
    145  OE1       32.0630   -0.6370  -29.7340 O.2   163  GLN163     -0.2717
    146  NE2       34.1960   -0.1750  -29.1870 N.am  163  GLN163     -0.0878
    147  N         31.8440   -3.8260  -34.6850 N.am  164  ASN164     -0.1974
    148  CA        31.7690   -5.1470  -35.3040 C.3   164  ASN164      0.1688
    149  C         31.6750   -5.0600  -36.8290 C.2   164  ASN164      0.2292
    150  O         31.3680   -6.0450  -37.5010 O.2   164  ASN164     -0.2864
    151  CB        30.5750   -5.9220  -34.7380 C.3   164  ASN164      0.1181
    152  CG        30.8610   -6.4880  -33.3660 C.2   164  ASN164      0.2629
    153  OD1       32.0190   -6.5970  -32.9710 O.2   164  ASN164     -0.2716
    154  ND2       29.8130   -6.8400  -32.6260 N.am  164  ASN164     -0.0877
    155  N         34.0300   -4.2610  -39.8340 N.3   166  LEU166     -0.1245
    156  CA        35.3890   -4.0410  -40.3060 C.3   166  LEU166      0.1561
    157  C         35.3830   -3.3360  -41.6590 C.2   166  LEU166      0.2260
    158  O         34.4830   -3.5410  -42.4720 O.2   166  LEU166     -0.2867
    159  CB        36.1260   -5.3760  -40.4110 C.3   166  LEU166      0.0270
    160  CG        36.0660   -6.2610  -39.1640 C.3   166  LEU166      0.0019
    161  CD1       36.7730   -7.5830  -39.4470 C.3   166  LEU166      0.0001
    162  CD2       36.7030   -5.5430  -37.9800 C.3   166  LEU166      0.0001
    163  N         31.7850   -8.8250  -38.5980 N.3   177  CYS177     -0.1221
    164  CA        32.5560   -9.7560  -37.7810 C.3   177  CYS177      0.1808
    165  C         31.8980   -9.9960  -36.4300 C.2   177  CYS177      0.2601
    166  O         30.8100   -9.4900  -36.1610 O.2   177  CYS177     -0.2717
    167  CB        33.9960   -9.2550  -37.5780 C.3   177  CYS177      0.0970
    168  SG        34.2240   -7.9030  -36.3700 S.3   177  CYS177     -0.0800
    169  N         32.5720  -10.7870  -35.6000 N.am  178  ASP178     -0.1973
    170  CA        32.1240  -11.1260  -34.2480 C.3   178  ASP178      0.1709
    171  C         30.7990  -11.8690  -34.1580 C.2   178  ASP178      0.2293
    172  O         29.7560  -11.2730  -33.8810 O.2   178  ASP178     -0.2864
    173  CB        32.0440   -9.8720  -33.3800 C.3   178  ASP178      0.1436
    174  CG        31.7340  -10.1960  -31.9270 C.2   178  ASP178      0.3671
    175  OD1       31.7020  -11.3920  -31.5770 O.co2 178  ASP178     -0.2456
    176  OD2       31.5190   -9.2630  -31.1330 O.co2 178  ASP178     -0.2456
    177  N         27.7740  -13.6780  -30.4260 N.3   181  SER181     -0.1217
    178  CA        26.4290  -13.5370  -29.8460 C.3   181  SER181      0.1889
    179  C         25.3890  -14.1010  -30.8070 C.2   181  SER181      0.2288
    180  O         24.2080  -14.1940  -30.4740 O.2   181  SER181     -0.2866
    181  CB        26.0800  -12.0630  -29.6080 C.3   181  SER181      0.2089
    182  OG        26.8940  -11.4680  -28.6150 O.3   181  SER181     -0.2183
@<TRIPOS>BOND
     1    82    81   ar
     2    81    83   ar
     3    81    80    1
     4    80    77    1
     5    87    86    2
     6   101   100    1
     7    77    78    1
     8    77    76    1
     9    61    62    1
    10    63    62    1
    11    63    64    2
    12   102   100    1
    13    62    65    1
    14   158   157    2
    15    86    96   am
    16    86    85    1
    17    84    78   am
    18    84    85    1
    19   100    97    1
    20    97    96    1
    21    97    98    1
    22    78    79    2
    23    76    70   am
    24   157   156    1
    25    85    88    1
    26    90    92   ar
    27    90    89   ar
    28    67    65    1
    29    65    66    1
    30    98    99    2
    31    88    89    1
    32    92    94   ar
    33    70    71    2
    34    70    69    1
    35    89    91   ar
    36   159   156    1
    37   159   160    1
    38   156   155    1
    39    69    72    1
    40    69    68    1
    41   161   160    1
    42    94    95    1
    43    94    93   ar
    44   160   162    1
    45    91    93   ar
    46    72    73    1
    47   103   104    1
    48   163   164    1
    49    47    48    1
    50   105   106    2
    51   105   104    1
    52    75    73    1
    53   104   107    1
    54    73    74    1
    55   164   167    1
    56   164   165    1
    57   167   168    1
    58   150   149    2
    59    50    49    2
    60    48    51    1
    61    48    49    1
    62   120   118    1
    63   149   148    1
    64   107   109    1
    65   107   108    1
    66   112   113    2
    67   112   111    1
    68   165   166    2
    69   165   169   am
    70   118   119    1
    71   118   117    2
    72   114   111    1
    73   114   115    1
    74   117   116    1
    75   111   110    1
    76   169   170    1
    77   148   151    1
    78   148   147    1
    79   132   131    2
    80     8     6    1
    81   116   115    1
    82   151   152    1
    83   147   140   am
    84   131   130    1
    85   129   130    1
    86   141   140    2
    87   170   171    1
    88   170   173    1
    89   140   139    1
    90   171   172    2
    91   138   139    1
    92   130   133    1
    93     7     5    1
    94   139   142    1
    95     6     5    1
    96   173   174    1
    97   152   153    2
    98   152   154   am
    99    52    53    1
   100     5     2    1
   101    45    44    1
   102   124   123    2
   103   123   122    1
   104    56    53    1
   105    56    57    1
   106   133   134    1
   107   121   122    1
   108    53    54    1
   109   142   143    1
   110    58    57    1
   111    58    59    1
   112   134   135    1
   113     4     3    2
   114   174   175   ar
   115   174   176   ar
   116    44    46    1
   117    44    41    1
   118     2     3    1
   119     2     1    1
   120   122   125    1
   121    55    54    2
   122   143   144    1
   123    60    59    1
   124     3     9   am
   125    42    41    1
   126    42    43    2
   127   125   126    1
   128    41    40    1
   129   179   180    2
   130   179   178    1
   131   135   136    1
   132   177   178    1
   133     9    10    1
   134   136   137    1
   135   126   128   ar
   136   126   127   ar
   137   144   145    2
   138   144   146   am
   139    10    11    1
   140   178   181    1
   141   181   182    1
   142    11    12    2
   143    11    13   am
   144    13    14    1
   145    16    15    2
   146    14    15    1
   147    14    17    1
   148    15    21   am
   149    31    33   ar
   150    31    30   ar
   151    33    35   ar
   152    38    39    2
   153    38    37    1
   154    17    18    1
   155    21    22    1
   156    37    36    2
   157    29    30    1
   158    29    26    1
   159    22    23    1
   160    30    32   ar
   161    36    27    1
   162    35    34   ar
   163    18    19    2
   164    18    20   am
   165    27    28    2
   166    27    26    1
   167    26    25    1
   168    23    24    2
   169    32    34   ar
