@<TRIPOS>MOLECULE
tmp/1j1fA00.pdb
 131 128 0 0 0
SMALL
GASTEIGER

@<TRIPOS>ATOM
      1  N         21.8780   36.1550   72.4100 N.3    10  GLN10      -0.1245
      2  CA        21.6330   35.7330   73.7810 C.3    10  GLN10       0.1566
      3  C         21.9510   36.8630   74.7590 C.2    10  GLN10       0.2260
      4  O         22.8120   37.6990   74.4920 O.2    10  GLN10      -0.2867
      5  CB        22.4890   34.4980   74.0910 C.3    10  GLN10       0.0367
      6  CG        23.9920   34.7240   73.9310 C.3    10  GLN10       0.0905
      7  CD        24.7980   33.4430   74.0850 C.2    10  GLN10       0.2608
      8  OE1       24.3080   32.4460   74.6240 O.2    10  GLN10      -0.2717
      9  NE2       26.0470   33.4700   73.6250 N.am   10  GLN10      -0.0878
     10  N         21.3390   33.9310   80.5860 N.3    15  VAL15      -0.1245
     11  CA        21.8060   32.6010   80.2140 C.3    15  VAL15       0.1561
     12  C         22.5680   31.9630   81.3680 C.2    15  VAL15       0.2260
     13  O         22.2940   30.8300   81.7600 O.2    15  VAL15      -0.2867
     14  CB        22.7400   32.6540   78.9790 C.3    15  VAL15       0.0252
     15  CG1       23.2750   31.2660   78.6670 C.3    15  VAL15       0.0019
     16  CG2       21.9820   33.2070   77.7800 C.3    15  VAL15       0.0019
     17  N         24.5770   34.0980   69.4890 N.3    35  HIS35      -0.1241
     18  CA        24.5560   32.6790   69.8370 C.3    35  HIS35       0.1621
     19  C         24.8440   32.0120   68.4860 C.2    35  HIS35       0.2264
     20  O         25.7680   31.2100   68.3650 O.2    35  HIS35      -0.2867
     21  CB        23.1840   32.2460   70.3810 C.3    35  HIS35       0.0745
     22  CG        23.0500   30.7630   70.5930 C.ar   35  HIS35       0.0817
     23  ND1       21.9730   30.1980   71.2430 N.ar   35  HIS35      -0.2268
     24  CD2       23.8420   29.7290   70.2150 C.ar   35  HIS35       0.1154
     25  CE1       22.1060   28.8830   71.2580 C.ar   35  HIS35       0.1986
     26  NE2       23.2320   28.5720   70.6400 N.ar   35  HIS35      -0.2212
     27  N         21.2950   30.6090   62.2630 N.3    38  TRP38      -0.1241
     28  CA        20.7590   29.3110   61.8800 C.3    38  TRP38       0.1605
     29  C         19.8860   29.2140   60.6410 C.2    38  TRP38       0.2264
     30  O         18.7490   29.6860   60.6320 O.2    38  TRP38      -0.2867
     31  CB        19.9540   28.7350   63.0510 C.3    38  TRP38       0.0550
     32  CG        20.6680   28.6780   64.3740 C.ar   38  TRP38       0.0003
     33  CD1       22.0160   28.7290   64.5890 C.ar   38  TRP38       0.0946
     34  CD2       20.0650   28.4920   65.6600 C.ar   38  TRP38       0.0152
     35  NE1       22.2900   28.5830   65.9300 N.ar   38  TRP38      -0.2442
     36  CE2       21.1090   28.4360   66.6100 C.ar   38  TRP38       0.0810
     37  CE3       18.7410   28.3680   66.1020 C.ar   38  TRP38       0.0012
     38  CZ2       20.8720   28.2580   67.9780 C.ar   38  TRP38       0.0191
     39  CZ3       18.5030   28.1910   67.4650 C.ar   38  TRP38       0.0001
     40  CH2       19.5670   28.1380   68.3850 C.ar   38  TRP38       0.0015
     41  N         32.0120   33.0450   73.5910 N.3    72  THR72      -0.1203
     42  CA        31.2520   32.0450   74.2960 C.3    72  THR72       0.1994
     43  C         30.9550   32.7450   75.6590 C.2    72  THR72       0.2618
     44  O         31.7720   33.5330   76.1800 O.2    72  THR72      -0.2717
     45  CB        32.0170   30.7440   74.5850 C.3    72  THR72       0.1784
     46  OG1       31.2310   29.9990   75.5260 O.3    72  THR72      -0.2211
     47  CG2       33.3930   30.9940   75.1510 C.3    72  THR72       0.0376
     48  N         29.7920   32.4990   76.2300 N.am   73  VAL73      -0.1965
     49  CA        29.4940   33.1620   77.4930 C.3    73  VAL73       0.1727
     50  C         29.4780   32.1270   78.5760 C.2    73  VAL73       0.2616
     51  O         29.4260   32.4560   79.7510 O.2    73  VAL73      -0.2715
     52  CB        28.0790   33.8740   77.4690 C.3    73  VAL73       0.0290
     53  CG1       27.9530   34.8380   76.2980 C.3    73  VAL73       0.0023
     54  CG2       26.9730   32.8280   77.4330 C.3    73  VAL73       0.0023
     55  N         29.5300   30.8650   78.1550 N.am   74  LEU74      -0.1963
     56  CA        29.5040   29.7320   79.0800 C.3    74  LEU74       0.1728
     57  C         30.8910   29.1810   79.3750 C.2    74  LEU74       0.2616
     58  O         31.2180   28.8750   80.5250 O.2    74  LEU74      -0.2715
     59  CB        28.6500   28.5850   78.5200 C.3    74  LEU74       0.0311
     60  CG        27.1660   28.8310   78.2390 C.3    74  LEU74       0.0022
     61  CD1       26.5430   27.5600   77.6860 C.3    74  LEU74       0.0001
     62  CD2       26.4570   29.2560   79.5170 C.3    74  LEU74       0.0001
     63  N         31.6990   29.0580   78.3290 N.am   75  ARG75      -0.1977
     64  CA        33.0450   28.5200   78.4570 C.3    75  ARG75       0.1597
     65  C         34.1360   29.5720   78.2940 C.2    75  ARG75       0.2287
     66  O         33.9250   30.7460   78.6030 O.2    75  ARG75      -0.2864
     67  CB        33.2250   27.3890   77.4450 C.3    75  ARG75       0.0334
     68  CG        32.2040   26.2770   77.6390 C.3    75  ARG75       0.0492
     69  CD        32.2000   25.2850   76.4950 C.3    75  ARG75       0.2205
     70  NE        31.2150   24.2310   76.7130 N.pl3  75  ARG75      -0.0865
     71  CZ        30.9410   23.2690   75.8370 C.cat  75  ARG75       0.5346
     72  NH1       31.5790   23.2260   74.6740 N.pl3  75  ARG75       0.1354
     73  NH2       30.0330   22.3470   76.1280 N.pl3  75  ARG75       0.1354
     74  N         33.5610   27.6570   69.9220 N.3    81  PHE81      -0.1241
     75  CA        32.1490   27.9870   69.7720 C.3    81  PHE81       0.1605
     76  C         31.8550   28.3170   68.3070 C.2    81  PHE81       0.2264
     77  O         30.8660   27.8380   67.7480 O.2    81  PHE81      -0.2867
     78  CB        31.8090   29.1650   70.7000 C.3    81  PHE81       0.0534
     79  CG        30.3480   29.5240   70.7510 C.ar   81  PHE81      -0.0203
     80  CD1       29.3570   28.5540   70.6160 C.ar   81  PHE81      -0.0042
     81  CD2       29.9670   30.8390   71.0020 C.ar   81  PHE81      -0.0042
     82  CE1       28.0070   28.8940   70.7340 C.ar   81  PHE81      -0.0003
     83  CE2       28.6260   31.1880   71.1240 C.ar   81  PHE81      -0.0003
     84  CZ        27.6440   30.2120   70.9890 C.ar   81  PHE81      -0.0000
     85  N         31.8920   25.1050   66.2180 N.3    84  HIS84      -0.1226
     86  CA        30.6860   24.3200   66.4420 C.3    84  HIS84       0.1752
     87  C         29.5010   24.9180   65.7000 C.2    84  HIS84       0.2595
     88  O         28.7290   24.2000   65.0610 O.2    84  HIS84      -0.2718
     89  CB        30.3760   24.2360   67.9400 C.3    84  HIS84       0.0759
     90  CG        29.0730   23.5670   68.2480 C.ar   84  HIS84       0.0818
     91  ND1       27.8970   24.2670   68.4210 N.ar   84  HIS84      -0.2268
     92  CD2       28.7490   22.2580   68.3690 C.ar   84  HIS84       0.1154
     93  CE1       26.9080   23.4180   68.6340 C.ar   84  HIS84       0.1986
     94  NE2       27.3990   22.1920   68.6070 N.ar   84  HIS84      -0.2212
     95  N         29.3560   26.2350   65.7780 N.am   85  GLU85      -0.1979
     96  CA        28.2500   26.8940   65.0990 C.3    85  GLU85       0.1602
     97  C         28.3600   26.7660   63.5820 C.2    85  GLU85       0.2287
     98  O         27.3460   26.6520   62.8880 O.2    85  GLU85      -0.2864
     99  CB        28.1770   28.3650   65.5200 C.3    85  GLU85       0.0415
    100  CG        27.7210   28.5600   66.9690 C.3    85  GLU85       0.1163
    101  CD        26.3420   27.9810   67.2310 C.2    85  GLU85       0.3649
    102  OE1       25.4330   28.2390   66.4220 O.co2  85  GLU85      -0.2457
    103  OE2       26.1590   27.2790   68.2500 O.co2  85  GLU85      -0.2457
    104  N         27.6270   22.8860   62.6680 N.3    88  LYS88      -0.1231
    105  CA        26.2520   22.4850   62.9240 C.3    88  LYS88       0.1693
    106  C         25.1970   23.3210   62.2090 C.2    88  LYS88       0.2592
    107  O         24.1140   22.8270   61.9090 O.2    88  LYS88      -0.2718
    108  CB        25.9680   22.5000   64.4270 C.3    88  LYS88       0.0285
    109  CG        24.5600   22.0450   64.7850 C.3    88  LYS88       0.0035
    110  CD        24.3700   21.9260   66.2900 C.3    88  LYS88       0.0206
    111  CE        22.9420   21.5100   66.6310 C.3    88  LYS88       0.1093
    112  NZ        22.7130   21.4070   68.1010 N.3    88  LYS88      -0.1314
    113  N         25.5170   24.5770   61.9180 N.am   89  HIS89      -0.1976
    114  CA        24.5520   25.4680   61.2760 C.3    89  HIS89       0.1656
    115  C         25.0330   26.1370   59.9940 C.2    89  HIS89       0.2291
    116  O         24.3370   26.1230   58.9810 O.2    89  HIS89      -0.2864
    117  CB        24.1400   26.5670   62.2620 C.3    89  HIS89       0.0771
    118  CG        23.5180   26.0530   63.5230 C.ar   89  HIS89       0.0820
    119  ND1       22.1980   25.6650   63.5970 N.ar   89  HIS89      -0.2267
    120  CD2       24.0340   25.8670   64.7600 C.ar   89  HIS89       0.1154
    121  CE1       21.9270   25.2640   64.8250 C.ar   89  HIS89       0.1986
    122  NE2       23.0240   25.3760   65.5520 N.ar   89  HIS89      -0.2212
    123  N         16.8610   34.8170   75.0050 N.3   165  GLU165     -0.1245
    124  CA        17.3130   35.0890   73.6440 C.3   165  GLU165      0.1567
    125  C         16.2880   35.8320   72.8170 C.2   165  GLU165      0.2260
    126  O         15.0890   35.7520   73.0690 O.2   165  GLU165     -0.2867
    127  CB        17.6750   33.7870   72.9240 C.3   165  GLU165      0.0388
    128  CG        18.7100   32.9550   73.6590 C.3   165  GLU165      0.1160
    129  CD        19.1590   31.7470   72.8660 C.2   165  GLU165      0.3649
    130  OE1       18.2940   30.9560   72.4320 O.co2 165  GLU165     -0.2457
    131  OE2       20.3800   31.5880   72.6820 O.co2 165  GLU165     -0.2457
@<TRIPOS>BOND
     1   116   115    2
     2   115   114    1
     3    30    29    2
     4    29    28    1
     5   114   113    1
     6   114   117    1
     7    28    27    1
     8    28    31    1
     9   107   106    2
    10   113   106   am
    11   106   105    1
    12   117   118    1
    13   104   105    1
    14    98    97    2
    15   105   108    1
    16    31    32    1
    17   118   119   ar
    18   118   120   ar
    19    97    96    1
    20   119   121   ar
    21    32    33   ar
    22    32    34   ar
    23   108   109    1
    24    33    35   ar
    25   120   122   ar
    26   109   110    1
    27   121   122   ar
    28    88    87    2
    29    96    99    1
    30    96    95    1
    31    99   100    1
    32    34    37   ar
    33    34    36   ar
    34    87    95   am
    35    87    86    1
    36    35    36   ar
    37    37    39   ar
    38    85    86    1
    39   110   111    1
    40   102   101   ar
    41    86    89    1
    42    36    38   ar
    43   111   112    1
    44   100   101    1
    45   101   103   ar
    46    39    40   ar
    47    77    76    2
    48    89    90    1
    49    38    40   ar
    50    90    92   ar
    51    90    91   ar
    52    76    75    1
    53    20    19    2
    54    92    94   ar
    55    91    93   ar
    56    19    18    1
    57    94    93   ar
    58    17    18    1
    59    75    74    1
    60    75    78    1
    61    18    21    1
    62    24    22   ar
    63    24    26   ar
    64    21    22    1
    65    22    23   ar
    66    80    82   ar
    67    80    79   ar
    68    26    25   ar
    69    78    79    1
    70    82    84   ar
    71    79    81   ar
    72    84    83   ar
    73    81    83   ar
    74    23    25   ar
    75     1     2    1
    76   130   129   ar
    77   131   129   ar
    78   125   126    2
    79   125   124    1
    80   129   128    1
    81   127   124    1
    82   127   128    1
    83    41    42    1
    84     9     7   am
    85   124   123    1
    86     2     5    1
    87     2     3    1
    88     6     7    1
    89     6     5    1
    90     7     8    2
    91    42    45    1
    92    42    43    1
    93     4     3    2
    94    45    47    1
    95    45    46    1
    96    72    71    1
    97    43    44    2
    98    43    48   am
    99    71    73    1
   100    71    70    2
   101    48    49    1
   102    53    52    1
   103    69    70    1
   104    69    68    1
   105    54    52    1
   106    67    68    1
   107    67    64    1
   108    52    49    1
   109    49    50    1
   110    61    60    1
   111    16    14    1
   112    55    50   am
   113    55    56    1
   114    60    59    1
   115    60    62    1
   116    65    64    1
   117    65    66    2
   118    63    64    1
   119    63    57   am
   120    59    56    1
   121    50    51    2
   122    15    14    1
   123    14    11    1
   124    56    57    1
   125    57    58    2
   126    11    10    1
   127    11    12    1
   128    12    13    2
