@<TRIPOS>MOLECULE
tmp/1j1mA00.pdb
 88 82 0 0 0
SMALL
GASTEIGER

@<TRIPOS>ATOM
      1  N         65.4630   -5.7640  104.3860 N.3     8  THR8       -0.1203
      2  CA        64.1890   -5.0750  104.4950 C.3     8  THR8        0.1994
      3  C         64.4310   -3.6760  105.0560 C.2     8  THR8        0.2618
      4  O         63.5810   -2.7960  104.9370 O.2     8  THR8       -0.2717
      5  CB        63.2310   -5.8400  105.4270 C.3     8  THR8        0.1784
      6  OG1       63.8910   -6.1190  106.6690 O.3     8  THR8       -0.2211
      7  CG2       62.8080   -7.1550  104.7870 C.3     8  THR8        0.0376
      8  N         65.6000   -3.4740  105.6580 N.am    9  ALA9       -0.1965
      9  CA        65.9460   -2.1800  106.2380 C.3     9  ALA9        0.1728
     10  C         66.0400   -1.1050  105.1630 C.2     9  ALA9        0.2617
     11  O         66.9140   -1.1570  104.3020 O.2     9  ALA9       -0.2715
     12  CB        67.2710   -2.2830  106.9890 C.3     9  ALA9        0.0334
     13  N         65.1340   -0.1320  105.2220 N.am   10  GLY10      -0.1940
     14  CA        65.1310    0.9400  104.2410 C.3    10  GLY10       0.2014
     15  C         64.8650    0.4610  102.8240 C.2    10  GLY10       0.2638
     16  O         65.2550    1.1130  101.8570 O.2    10  GLY10      -0.2714
     17  N         64.1900   -0.6770  102.6890 N.am   11  ALA11      -0.1977
     18  CA        63.8990   -1.2140  101.3670 C.3    11  ALA11       0.1597
     19  C         63.0500   -0.2590  100.5360 C.2    11  ALA11       0.2287
     20  O         62.1830    0.4420  101.0590 O.2    11  ALA11      -0.2864
     21  CB        63.1890   -2.5580  101.4900 C.3    11  ALA11       0.0319
     22  N         66.0450   -4.6590  109.6090 N.3    60  HIS60      -0.1241
     23  CA        66.3520   -3.5050  110.4420 C.3    60  HIS60       0.1621
     24  C         66.7550   -3.9060  111.8570 C.2    60  HIS60       0.2264
     25  O         67.4930   -3.1800  112.5250 O.2    60  HIS60      -0.2867
     26  CB        65.1520   -2.5580  110.4780 C.3    60  HIS60       0.0745
     27  CG        65.3360   -1.3830  111.3890 C.ar   60  HIS60       0.0817
     28  ND1       66.3240   -0.4410  111.2030 N.ar   60  HIS60      -0.2268
     29  CD2       64.6640   -1.0110  112.5040 C.ar   60  HIS60       0.1154
     30  CE1       66.2540    0.4610  112.1660 C.ar   60  HIS60       0.1986
     31  NE2       65.2560    0.1390  112.9690 N.ar   60  HIS60      -0.2212
     32  N         56.8870   -5.5000  103.1440 N.3   136  ASN136     -0.1225
     33  CA        58.1880   -5.3580  103.7850 C.3   136  ASN136      0.1785
     34  C         58.1170   -5.5790  105.2980 C.2   136  ASN136      0.2597
     35  O         59.0580   -6.1040  105.8960 O.2   136  ASN136     -0.2718
     36  CB        58.7780   -3.9790  103.4800 C.3   136  ASN136      0.1169
     37  CG        60.2810   -3.9360  103.6740 C.2   136  ASN136      0.2627
     38  OD1       60.8030   -3.0650  104.3730 O.2   136  ASN136     -0.2716
     39  ND2       60.9860   -4.8750  103.0510 N.am  136  ASN136     -0.0877
     40  N         57.0080   -5.1780  105.9150 N.am  137  GLY137     -0.1957
     41  CA        56.8510   -5.3700  107.3480 C.3   137  GLY137      0.1869
     42  C         56.8140   -6.8560  107.6530 C.2   137  GLY137      0.2309
     43  O         57.5410   -7.3400  108.5250 O.2   137  GLY137     -0.2863
     44  N         60.2620   -8.3620  107.2400 N.3   140  GLU140     -0.1231
     45  CA        61.1390   -7.9320  108.3310 C.3   140  GLU140      0.1699
     46  C         60.8910   -8.8650  109.5180 C.2   140  GLU140      0.2592
     47  O         61.8270   -9.3950  110.1220 O.2   140  GLU140     -0.2718
     48  CB        60.7970   -6.4790  108.7040 C.3   140  GLU140      0.0402
     49  CG        61.3100   -5.9620  110.0520 C.3   140  GLU140      0.1161
     50  CD        62.7690   -5.5450  110.0420 C.2   140  GLU140      0.3649
     51  OE1       63.2260   -4.9700  109.0340 O.co2 140  GLU140     -0.2457
     52  OE2       63.4500   -5.7700  111.0660 O.co2 140  GLU140     -0.2457
     53  N         59.6150   -9.0690  109.8320 N.am  141  GLU141     -0.1979
     54  CA        59.2010   -9.9300  110.9350 C.3   141  GLU141      0.1602
     55  C         59.5700  -11.3910  110.7010 C.2   141  GLU141      0.2287
     56  O         60.0010  -12.0860  111.6240 O.2   141  GLU141     -0.2864
     57  CB        57.6870   -9.8060  111.1370 C.3   141  GLU141      0.0415
     58  CG        57.2600   -8.4410  111.6630 C.3   141  GLU141      0.1163
     59  CD        55.7840   -8.1460  111.4500 C.2   141  GLU141      0.3649
     60  OE1       55.0170   -9.0710  111.1080 O.co2 141  GLU141     -0.2457
     61  OE2       55.3920   -6.9740  111.6330 O.co2 141  GLU141     -0.2457
     62  N         55.6610   -2.2430   98.9060 N.3   187  ILE187     -0.1245
     63  CA        56.8170   -1.5180   99.4180 C.3   187  ILE187      0.1561
     64  C         56.6700   -0.0170   99.1570 C.2   187  ILE187      0.2260
     65  O         56.9040    0.8050  100.0450 O.2   187  ILE187     -0.2867
     66  CB        58.1210   -2.0320   98.7650 C.3   187  ILE187      0.0252
     67  CG1       58.3860   -3.4680   99.2200 C.3   187  ILE187      0.0019
     68  CG2       59.2890   -1.1180   99.1270 C.3   187  ILE187      0.0019
     69  CD1       59.5510   -4.1290   98.5130 C.3   187  ILE187      0.0001
     70  N         54.2780    1.2450  101.6680 N.3   190  ASN190     -0.1240
     71  CA        54.4430    0.6630  102.9960 C.3   190  ASN190      0.1653
     72  C         53.1260    0.0810  103.4740 C.2   190  ASN190      0.2266
     73  O         52.6470    0.3760  104.5710 O.2   190  ASN190     -0.2867
     74  CB        54.9590    1.6930  104.0040 C.3   190  ASN190      0.1155
     75  CG        55.2410    1.0760  105.3610 C.2   190  ASN190      0.2627
     76  OD1       55.6500   -0.0840  105.4510 O.2   190  ASN190     -0.2716
     77  ND2       55.0380    1.8470  106.4220 N.am  190  ASN190     -0.0877
     78  N         50.8770   -3.4980  104.0540 N.3   192  ARG192     -0.1245
     79  CA        50.9930   -4.9290  104.2700 C.3   192  ARG192      0.1563
     80  C         49.5880   -5.4650  104.0830 C.2   192  ARG192      0.2260
     81  O         48.6340   -4.9800  104.6950 O.2   192  ARG192     -0.2867
     82  CB        51.5390   -5.2460  105.6700 C.3   192  ARG192      0.0307
     83  CG        50.8010   -4.6140  106.8320 C.3   192  ARG192      0.0489
     84  CD        51.6070   -4.7830  108.1220 C.3   192  ARG192      0.2205
     85  NE        51.6560   -6.1680  108.5920 N.pl3 192  ARG192     -0.0865
     86  CZ        52.6400   -6.6700  109.3330 C.cat 192  ARG192      0.5346
     87  NH1       53.6650   -5.9040  109.6810 N.pl3 192  ARG192      0.1354
     88  NH2       52.5950   -7.9320  109.7420 N.pl3 192  ARG192      0.1354
@<TRIPOS>BOND
     1    69    67    1
     2    66    68    1
     3    66    67    1
     4    66    63    1
     5    62    63    1
     6    64    63    1
     7    64    65    2
     8    19    20    2
     9    19    18    1
    10    18    21    1
    11    18    17    1
    12    70    71    1
    13    16    15    2
    14    17    15   am
    15    15    14    1
    16    71    72    1
    17    71    74    1
    18    39    37   am
    19    32    33    1
    20    72    73    2
    21    36    37    1
    22    36    33    1
    23    37    38    2
    24    33    34    1
    25    74    75    1
    26    78    79    1
    27    80    79    1
    28    80    81    2
    29    14    13    1
    30    79    82    1
    31    11    10    2
    32     1     2    1
    33     2     3    1
    34     2     5    1
    35     7     5    1
    36     4     3    2
    37     3     8   am
    38    10    13   am
    39    10     9    1
    40    34    35    2
    41    34    40   am
    42    75    76    2
    43    75    77   am
    44     5     6    1
    45     8     9    1
    46    82    83    1
    47    40    41    1
    48     9    12    1
    49    83    84    1
    50    44    45    1
    51    41    42    1
    52    42    43    2
    53    84    85    1
    54    45    48    1
    55    45    46    1
    56    85    86    2
    57    48    49    1
    58    51    50   ar
    59    86    87    1
    60    86    88    1
    61    46    53   am
    62    46    47    2
    63    22    23    1
    64    53    54    1
    65    50    49    1
    66    50    52   ar
    67    23    26    1
    68    23    24    1
    69    26    27    1
    70    55    54    1
    71    55    56    2
    72    54    57    1
    73    60    59   ar
    74    57    58    1
    75    28    27   ar
    76    28    30   ar
    77    27    29   ar
    78    59    61   ar
    79    59    58    1
    80    24    25    2
    81    30    31   ar
    82    29    31   ar
