@<TRIPOS>MOLECULE
tmp/1j1sA00.pdb
 144 140 0 0 0
SMALL
GASTEIGER

@<TRIPOS>ATOM
      1  N         30.2820   24.1290    6.5760 N.3    70  ASN70      -0.1225
      2  CA        30.4460   23.4980    7.8690 C.3    70  ASN70       0.1785
      3  C         29.5650   24.1110    8.9440 C.2    70  ASN70       0.2597
      4  O         29.7680   23.8110   10.1190 O.2    70  ASN70      -0.2718
      5  CB        31.9380   23.5460    8.3430 C.3    70  ASN70       0.1169
      6  CG        32.5110   24.9120    8.5540 C.2    70  ASN70       0.2627
      7  OD1       31.9660   25.8840    8.0590 O.2    70  ASN70      -0.2716
      8  ND2       33.5900   25.0780    9.2930 N.am   70  ASN70      -0.0877
      9  N         28.5450   24.8950    8.5460 N.am   71  LEU71      -0.1966
     10  CA        27.6400   25.5760    9.4730 C.3    71  LEU71       0.1728
     11  C         28.2850   26.4230   10.5510 C.2    71  LEU71       0.2616
     12  O         27.8260   26.5200   11.6750 O.2    71  LEU71      -0.2715
     13  CB        26.7130   24.5810   10.1510 C.3    71  LEU71       0.0311
     14  CG        25.6570   23.9740    9.2580 C.3    71  LEU71       0.0022
     15  CD1       24.9100   22.9120   10.0640 C.3    71  LEU71       0.0001
     16  CD2       24.7270   25.0640    8.7190 C.3    71  LEU71       0.0001
     17  N         29.3420   27.1460   10.2080 N.am   72  TYR72      -0.1960
     18  CA        30.0610   27.9610   11.1750 C.3    72  TYR72       0.1771
     19  C         29.4460   29.3480   11.3060 C.2    72  TYR72       0.2619
     20  O         29.1630   29.9710   10.2980 O.2    72  TYR72      -0.2715
     21  CB        31.4940   28.0060   10.6970 C.3    72  TYR72       0.0574
     22  CG        32.4670   28.2570   11.7910 C.ar   72  TYR72      -0.0198
     23  CD1       32.7920   29.5560   12.1160 C.ar   72  TYR72      -0.0009
     24  CD2       33.0480   27.1900   12.4080 C.ar   72  TYR72      -0.0009
     25  CE1       33.7310   29.7950   13.0840 C.ar   72  TYR72       0.0417
     26  CE2       33.9910   27.4040   13.3740 C.ar   72  TYR72       0.0417
     27  CZ        34.3190   28.7050   13.6980 C.ar   72  TYR72       0.1957
     28  OH        35.3080   28.9390   14.6510 O.3    72  TYR72      -0.2866
     29  N         29.1570   29.8360   12.5130 N.am   73  VAL73      -0.1977
     30  CA        28.6720   31.2070   12.7290 C.3    73  VAL73       0.1596
     31  C         29.9340   32.0390   12.5730 C.2    73  VAL73       0.2287
     32  O         30.9250   31.8490   13.2700 O.2    73  VAL73      -0.2864
     33  CB        28.0800   31.3760   14.1770 C.3    73  VAL73       0.0276
     34  CG1       27.7450   32.7890   14.5540 C.3    73  VAL73       0.0022
     35  CG2       26.8000   30.5640   14.2310 C.3    73  VAL73       0.0022
     36  N         33.8440   38.0490   13.9110 N.3    89  PHE89      -0.1241
     37  CA        35.0220   37.5920   14.6800 C.3    89  PHE89       0.1605
     38  C         36.3810   38.0640   14.1340 C.2    89  PHE89       0.2264
     39  O         36.5310   38.2840   12.9300 O.2    89  PHE89      -0.2867
     40  CB        35.0030   36.0820   14.7760 C.3    89  PHE89       0.0534
     41  CG        33.8780   35.4810   15.6090 C.ar   89  PHE89      -0.0203
     42  CD1       33.8780   35.6490   16.9820 C.ar   89  PHE89      -0.0042
     43  CD2       32.8850   34.7770   14.9760 C.ar   89  PHE89      -0.0042
     44  CE1       32.8830   35.1120   17.7360 C.ar   89  PHE89      -0.0003
     45  CE2       31.8800   34.2310   15.7430 C.ar   89  PHE89      -0.0003
     46  CZ        31.8830   34.4010   17.1180 C.ar   89  PHE89      -0.0000
     47  N         35.8570   32.6310   16.9940 N.3   120  GLY120     -0.1210
     48  CA        34.6650   31.8500   17.3010 C.3   120  GLY120      0.1956
     49  C         34.8690   30.4110   17.7370 C.2   120  GLY120      0.2612
     50  O         33.9930   29.5970   17.5260 O.2   120  GLY120     -0.2717
     51  N         35.9960   30.0580   18.3170 N.am  121  LEU121     -0.1965
     52  CA        36.2800   28.7270   18.8130 C.3   121  LEU121      0.1728
     53  C         35.7630   28.6080   20.2400 C.2   121  LEU121      0.2616
     54  O         35.8190   29.5580   21.0310 O.2   121  LEU121     -0.2715
     55  CB        37.7590   28.4750   18.8510 C.3   121  LEU121      0.0311
     56  CG        38.5820   28.7080   17.6220 C.3   121  LEU121      0.0022
     57  CD1       40.0350   28.6340   18.0430 C.3   121  LEU121      0.0001
     58  CD2       38.1650   27.7540   16.5270 C.3   121  LEU121      0.0001
     59  N         35.2360   27.4150   20.5680 N.am  122  TYR122     -0.1974
     60  CA        34.6500   27.1270   21.8730 C.3   122  TYR122      0.1639
     61  C         35.4990   27.4470   23.0680 C.2   122  TYR122      0.2290
     62  O         34.9920   28.1090   23.9530 O.2   122  TYR122     -0.2864
     63  CB        34.2210   25.6350   21.9810 C.3   122  TYR122      0.0560
     64  CG        32.8710   25.3400   21.3540 C.ar  122  TYR122     -0.0198
     65  CD1       31.8350   26.2580   21.4500 C.ar  122  TYR122     -0.0009
     66  CD2       32.6850   24.1520   20.6770 C.ar  122  TYR122     -0.0009
     67  CE1       30.6310   25.9780   20.8580 C.ar  122  TYR122      0.0417
     68  CE2       31.4740   23.8750   20.1050 C.ar  122  TYR122      0.0417
     69  CZ        30.4750   24.7880   20.2090 C.ar  122  TYR122      0.1957
     70  OH        29.2660   24.4660   19.7130 O.3   122  TYR122     -0.2866
     71  N         25.1680   29.1510   18.9620 N.3   170  ILE170     -0.1245
     72  CA        25.8560   28.1540   18.1600 C.3   170  ILE170      0.1561
     73  C         25.2970   26.7540   18.5160 C.2   170  ILE170      0.2260
     74  O         25.1230   25.9510   17.5980 O.2   170  ILE170     -0.2867
     75  CB        27.4000   28.1990   18.4210 C.3   170  ILE170      0.0252
     76  CG1       27.9870   29.5330   17.9740 C.3   170  ILE170      0.0019
     77  CG2       28.0930   27.0920   17.6410 C.3   170  ILE170      0.0019
     78  CD1       29.4220   29.7350   18.5150 C.3   170  ILE170      0.0001
     79  N         23.4870   25.8090   15.1270 N.3   174  SER174     -0.1202
     80  CA        24.4410   24.9540   14.4360 C.3   174  SER174      0.2020
     81  C         24.5930   23.5270   14.9870 C.2   174  SER174      0.2618
     82  O         24.5060   22.5780   14.2160 O.2   174  SER174     -0.2717
     83  CB        25.8110   25.5560   14.4370 C.3   174  SER174      0.2103
     84  OG        25.8050   26.5690   13.4900 O.3   174  SER174     -0.2182
     85  N         24.8090   23.2870   16.2780 N.am  175  GLU175     -0.1979
     86  CA        24.9380   21.9530   16.8070 C.3   175  GLU175      0.1602
     87  C         23.6470   21.2000   16.7150 C.2   175  GLU175      0.2287
     88  O         23.6830   20.0120   16.3900 O.2   175  GLU175     -0.2864
     89  CB        25.3850   21.9760   18.2590 C.3   175  GLU175      0.0415
     90  CG        26.7540   22.6410   18.3810 C.3   175  GLU175      0.1163
     91  CD        27.9450   21.9730   17.6950 C.2   175  GLU175      0.3649
     92  OE1       27.7940   21.0020   16.9740 O.co2 175  GLU175     -0.2457
     93  OE2       29.0860   22.4180   17.8980 O.co2 175  GLU175     -0.2457
     94  N         23.3320   19.8950   13.1740 N.3   178  ARG178     -0.1245
     95  CA        24.2670   18.8250   12.8840 C.3   178  ARG178      0.1563
     96  C         23.8470   17.5240   13.5610 C.2   178  ARG178      0.2260
     97  O         23.9190   16.4610   12.9630 O.2   178  ARG178     -0.2867
     98  CB        25.6190   19.2270   13.3750 C.3   178  ARG178      0.0307
     99  CG        26.2170   20.3860   12.6750 C.3   178  ARG178      0.0489
    100  CD        27.4160   20.7990   13.5160 C.3   178  ARG178      0.2205
    101  NE        28.1870   21.8240   12.8410 N.pl3 178  ARG178     -0.0865
    102  CZ        28.8920   22.7510   13.4620 C.cat 178  ARG178      0.5346
    103  NH1       28.9640   22.8010   14.7610 N.pl3 178  ARG178      0.1354
    104  NH2       29.4240   23.7160   12.7750 N.pl3 178  ARG178      0.1354
    105  N         29.4960   17.1880   19.8050 N.3   204  GLU204     -0.1231
    106  CA        29.9350   18.4600   19.2390 C.3   204  GLU204      0.1699
    107  C         31.3840   18.3740   18.7910 C.2   204  GLU204      0.2592
    108  O         31.7870   18.7080   17.6840 O.2   204  GLU204     -0.2718
    109  CB        29.8240   19.5910   20.2610 C.3   204  GLU204      0.0402
    110  CG        28.4080   19.9400   20.5620 C.3   204  GLU204      0.1161
    111  CD        28.1620   20.9840   21.6690 C.2   204  GLU204      0.3649
    112  OE1       29.0810   21.2740   22.4420 O.co2 204  GLU204     -0.2457
    113  OE2       27.0400   21.4850   21.7620 O.co2 204  GLU204     -0.2457
    114  N         32.1440   17.8220   19.7100 N.am  205  GLU205     -0.1979
    115  CA        33.5570   17.6310   19.5520 C.3   205  GLU205      0.1602
    116  C         33.9940   16.6100   18.5050 C.2   205  GLU205      0.2287
    117  O         35.0830   16.7180   17.9490 O.2   205  GLU205     -0.2864
    118  CB        34.0340   17.2590   20.8970 C.3   205  GLU205      0.0415
    119  CG        35.1230   18.1400   21.4190 C.3   205  GLU205      0.1163
    120  CD        34.6190   19.4570   21.9510 C.2   205  GLU205      0.3649
    121  OE1       34.2380   20.3300   21.1390 O.co2 205  GLU205     -0.2457
    122  OE2       34.6340   19.6230   23.1790 O.co2 205  GLU205     -0.2457
    123  N         32.0220   15.7460   15.6400 N.3   207  TRP207     -0.1241
    124  CA        31.3120   15.7430   14.3690 C.3   207  TRP207      0.1605
    125  C         32.1410   15.3890   13.1330 C.2   207  TRP207      0.2264
    126  O         31.6790   14.7070   12.2270 O.2   207  TRP207     -0.2867
    127  CB        30.6780   17.1050   14.1500 C.3   207  TRP207      0.0550
    128  CG        29.8510   17.2780   12.8730 C.ar  207  TRP207      0.0003
    129  CD1       28.8490   16.4130   12.5110 C.ar  207  TRP207      0.0946
    130  CD2       29.9540   18.3300   12.0130 C.ar  207  TRP207      0.0152
    131  NE1       28.3030   16.9260   11.4380 N.ar  207  TRP207     -0.2442
    132  CE2       28.9250   18.0660   11.1100 C.ar  207  TRP207      0.0810
    133  CE3       30.7390   19.4610   11.8700 C.ar  207  TRP207      0.0012
    134  CZ2       28.6630   18.9100   10.0660 C.ar  207  TRP207      0.0191
    135  CZ3       30.4650   20.3160   10.8040 C.ar  207  TRP207      0.0001
    136  CH2       29.4370   20.0320    9.9240 C.ar  207  TRP207      0.0015
    137  N         29.3950   16.3390    7.8640 N.3   252  ASN252     -0.1240
    138  CA        30.4030   17.2800    7.4050 C.3   252  ASN252      0.1653
    139  C         30.8220   16.7970    6.0170 C.2   252  ASN252      0.2266
    140  O         30.6640   15.6210    5.7110 O.2   252  ASN252     -0.2867
    141  CB        31.5250   17.2210    8.4140 C.3   252  ASN252      0.1155
    142  CG        32.6240   18.2200    8.1790 C.2   252  ASN252      0.2627
    143  OD1       33.7800   17.8900    8.4520 O.2   252  ASN252     -0.2716
    144  ND2       32.3380   19.4500    7.7050 N.am  252  ASN252     -0.0877
@<TRIPOS>BOND
     1   140   139    2
     2   139   138    1
     3     1     2    1
     4   138   137    1
     5   138   141    1
     6   144   142   am
     7     2     5    1
     8     2     3    1
     9     7     6    2
    10   142   141    1
    11   142   143    2
    12     5     6    1
    13     9     3   am
    14     9    10    1
    15     6     8   am
    16    16    14    1
    17     3     4    2
    18    14    15    1
    19    14    13    1
    20    10    13    1
    21    10    11    1
    22   136   134   ar
    23   136   135   ar
    24   134   132   ar
    25    17    11   am
    26    17    18    1
    27    20    19    2
    28    11    12    2
    29    21    18    1
    30    21    22    1
    31   135   133   ar
    32   132   131   ar
    33   132   130   ar
    34    18    19    1
    35    19    29   am
    36   131   129   ar
    37    22    23   ar
    38    22    24   ar
    39   133   130   ar
    40   130   128   ar
    41    23    25   ar
    42   126   125    2
    43    24    26   ar
    44   129   128   ar
    45    29    30    1
    46    31    30    1
    47    31    32    2
    48    99    98    1
    49    99   100    1
    50    30    33    1
    51   104   102    1
    52   101   102    2
    53   101   100    1
    54   128   127    1
    55    95    94    1
    56    95    98    1
    57    95    96    1
    58    39    38    2
    59    97    96    2
    60    25    27   ar
    61   125   124    1
    62    26    27   ar
    63   102   103    1
    64    84    83    1
    65    27    28    1
    66    36    37    1
    67    38    37    1
    68   127   124    1
    69    33    35    1
    70    33    34    1
    71    82    81    2
    72   124   123    1
    73    80    83    1
    74    80    81    1
    75    80    79    1
    76    37    40    1
    77    40    41    1
    78    43    41   ar
    79    43    45   ar
    80    81    85   am
    81    41    42   ar
    82    45    46   ar
    83    85    86    1
    84    88    87    2
    85    58    56    1
    86    87    86    1
    87    86    89    1
    88    92    91   ar
    89    42    44   ar
    90    47    48    1
    91    46    44   ar
    92    48    49    1
    93    50    49    2
    94    74    73    2
    95    56    57    1
    96    56    55    1
    97    77    75    1
    98   108   107    2
    99    91    93   ar
   100    91    90    1
   101    49    51   am
   102   117   116    2
   103    76    75    1
   104    76    78    1
   105    72    75    1
   106    72    73    1
   107    72    71    1
   108    89    90    1
   109    51    52    1
   110   116   115    1
   111   107   106    1
   112   107   114   am
   113    52    55    1
   114    52    53    1
   115   106   105    1
   116   106   109    1
   117   115   114    1
   118   115   118    1
   119    70    69    1
   120    68    69   ar
   121    68    66   ar
   122    69    67   ar
   123    53    59   am
   124    53    54    2
   125   109   110    1
   126   110   111    1
   127    59    60    1
   128    66    64   ar
   129    67    65   ar
   130   118   119    1
   131   121   120   ar
   132    64    65   ar
   133    64    63    1
   134   119   120    1
   135   111   113   ar
   136   111   112   ar
   137    60    63    1
   138    60    61    1
   139   120   122   ar
   140    61    62    2
