@<TRIPOS>MOLECULE
tmp/1j1zA01.pdb
 150 140 0 0 0
SMALL
GASTEIGER

@<TRIPOS>ATOM
      1  N         -7.5670   57.2160   50.8020 N.3    84  TYR84      -0.1241
      2  CA        -6.9620   57.7840   51.9990 C.3    84  TYR84       0.1605
      3  C         -6.9800   59.3080   52.0570 C.2    84  TYR84       0.2264
      4  O         -6.3390   59.9770   51.2500 O.2    84  TYR84      -0.2867
      5  CB        -5.5260   57.2590   52.1600 C.3    84  TYR84       0.0534
      6  CG        -4.8900   57.6130   53.4850 C.ar   84  TYR84      -0.0201
      7  CD1       -5.6380   57.6060   54.6630 C.ar   84  TYR84      -0.0009
      8  CD2       -3.5400   57.9500   53.5650 C.ar   84  TYR84      -0.0009
      9  CE1       -5.0580   57.9310   55.8860 C.ar   84  TYR84       0.0417
     10  CE2       -2.9490   58.2740   54.7830 C.ar   84  TYR84       0.0417
     11  CZ        -3.7140   58.2650   55.9400 C.ar   84  TYR84       0.1957
     12  OH        -3.1430   58.6130   57.1430 O.3    84  TYR84      -0.2866
     13  N         -3.3760   60.7780   59.2110 N.3    88  THR88      -0.1203
     14  CA        -2.1130   60.7570   59.9570 C.3    88  THR88       0.1994
     15  C         -1.0550   61.5770   59.2230 C.2    88  THR88       0.2618
     16  O         -0.2930   62.3300   59.8300 O.2    88  THR88      -0.2717
     17  CB        -1.5740   59.3220   60.1280 C.3    88  THR88       0.1784
     18  OG1       -2.4390   58.5910   60.9990 O.3    88  THR88      -0.2211
     19  CG2       -0.1650   59.3340   60.7170 C.3    88  THR88       0.0376
     20  N         -1.0230   61.4190   57.9090 N.am   89  SER89      -0.1951
     21  CA        -0.0650   62.1140   57.0590 C.3    89  SER89       0.1924
     22  C          0.1160   63.6230   57.3420 C.2    89  SER89       0.2314
     23  O          1.2500   64.0650   57.5460 O.2    89  SER89      -0.2863
     24  CB        -0.4400   61.8720   55.5960 C.3    89  SER89       0.2116
     25  OG        -0.6270   60.4780   55.3510 O.3    89  SER89      -0.2180
     26  N          1.7360   64.5980   61.2330 N.3    92  ARG92      -0.1245
     27  CA         3.1520   64.4400   61.5580 C.3    92  ARG92       0.1563
     28  C          4.0300   65.6930   61.3800 C.2    92  ARG92       0.2260
     29  O          4.8410   66.0100   62.2510 O.2    92  ARG92      -0.2867
     30  CB         3.7380   63.2730   60.7600 C.3    92  ARG92       0.0307
     31  CG         3.0270   61.9390   60.9720 C.3    92  ARG92       0.0489
     32  CD         2.6620   61.6680   62.4430 C.3    92  ARG92       0.2205
     33  NE         2.3440   60.2600   62.6650 N.pl3  92  ARG92      -0.0865
     34  CZ         1.7170   59.7800   63.7390 C.cat  92  ARG92       0.5346
     35  NH1        1.3220   60.5980   64.7070 N.pl3  92  ARG92       0.1354
     36  NH2        1.4970   58.4770   63.8500 N.pl3  92  ARG92       0.1354
     37  N          5.7970   55.0380   57.2660 N.3   120  ASN120     -0.1225
     38  CA         5.8830   56.3510   56.6430 C.3   120  ASN120      0.1785
     39  C          6.1540   57.4550   57.6610 C.2   120  ASN120      0.2597
     40  O          6.7620   58.4720   57.3270 O.2   120  ASN120     -0.2718
     41  CB         4.5680   56.6910   55.9220 C.3   120  ASN120      0.1169
     42  CG         4.2130   55.6920   54.8400 C.2   120  ASN120      0.2627
     43  OD1        4.9730   55.4830   53.8930 O.2   120  ASN120     -0.2716
     44  ND2        3.0500   55.0670   54.9750 N.am  120  ASN120     -0.0877
     45  N          5.7010   57.2620   58.8970 N.am  121  ASP121     -0.1974
     46  CA         5.8650   58.2900   59.9190 C.3   121  ASP121      0.1709
     47  C          7.2940   58.7430   60.1590 C.2   121  ASP121      0.2293
     48  O          7.5350   59.9280   60.4060 O.2   121  ASP121     -0.2864
     49  CB         5.2110   57.8550   61.2400 C.3   121  ASP121      0.1436
     50  CG         3.6810   57.8380   61.1560 C.2   121  ASP121      0.3671
     51  OD1        3.1140   58.6840   60.4300 O.co2 121  ASP121     -0.2456
     52  OD2        3.0450   56.9940   61.8210 O.co2 121  ASP121     -0.2456
     53  N          8.1130   61.3170   57.4760 N.3   124  ARG124     -0.1245
     54  CA         7.4310   62.5940   57.6910 C.3   124  ARG124      0.1563
     55  C          8.1270   63.4070   58.7820 C.2   124  ARG124      0.2260
     56  O          8.4050   64.5970   58.6040 O.2   124  ARG124     -0.2867
     57  CB         5.9580   62.3510   58.0600 C.3   124  ARG124      0.0307
     58  CG         5.1350   61.7420   56.9230 C.3   124  ARG124      0.0489
     59  CD         3.8870   61.0140   57.4320 C.3   124  ARG124      0.2205
     60  NE         3.2490   60.2570   56.3580 N.pl3 124  ARG124     -0.0865
     61  CZ         2.3370   59.3030   56.5320 C.cat 124  ARG124      0.5346
     62  NH1        1.9330   58.9710   57.7560 N.pl3 124  ARG124      0.1354
     63  NH2        1.8410   58.6700   55.4780 N.pl3 124  ARG124      0.1354
     64  N         -2.8340   48.1840   65.5650 N.3   168  SER168     -0.1202
     65  CA        -2.2810   49.4810   65.9440 C.3   168  SER168      0.2020
     66  C         -3.2480   50.6270   65.6050 C.2   168  SER168      0.2619
     67  O         -4.0610   50.5110   64.6930 O.2   168  SER168     -0.2717
     68  CB        -0.9530   49.6890   65.2000 C.3   168  SER168      0.2103
     69  OG        -0.4490   50.9980   65.3720 O.3   168  SER168     -0.2182
     70  N         -3.1390   51.7360   66.3310 N.am  169  MET169     -0.1965
     71  CA        -4.0020   52.8910   66.1090 C.3   169  MET169      0.1736
     72  C         -3.2800   54.2280   66.1860 C.2   169  MET169      0.2616
     73  O         -2.2780   54.3650   66.8820 O.2   169  MET169     -0.2715
     74  CB        -5.1300   52.9300   67.1500 C.3   169  MET169      0.0427
     75  CG        -6.2590   51.9370   66.9400 C.3   169  MET169      0.0599
     76  SD        -7.3530   51.8360   68.3840 S.3   169  MET169     -0.1393
     77  CE        -7.4530   53.6080   68.8850 C.3   169  MET169      0.0692
     78  N         -3.8020   55.2080   65.4490 N.am  170  ASP170     -0.1971
     79  CA        -3.2930   56.5780   65.4840 C.3   170  ASP170      0.1709
     80  C         -4.5140   57.4660   65.3150 C.2   170  ASP170      0.2293
     81  O         -5.1760   57.4400   64.2670 O.2   170  ASP170     -0.2864
     82  CB        -2.2990   56.8940   64.3700 C.3   170  ASP170      0.1436
     83  CG        -1.7210   58.2990   64.5140 C.2   170  ASP170      0.3671
     84  OD1       -1.7980   59.1070   63.5620 O.co2 170  ASP170     -0.2456
     85  OD2       -1.1940   58.6040   65.6010 O.co2 170  ASP170     -0.2456
     86  N         -6.7640   55.9140   62.5220 N.3   177  SER177     -0.1217
     87  CA        -6.1890   54.8920   61.6520 C.3   177  SER177      0.1889
     88  C         -6.0780   53.5630   62.3790 C.2   177  SER177      0.2288
     89  O         -5.8480   53.5260   63.5860 O.2   177  SER177     -0.2866
     90  CB        -4.7900   55.3150   61.1840 C.3   177  SER177      0.2089
     91  OG        -3.9690   54.1820   60.9370 O.3   177  SER177     -0.2183
     92  N         -4.3050   49.5950   61.7090 N.3   179  GLU179     -0.1245
     93  CA        -3.5140   48.7020   60.8680 C.3   179  GLU179      0.1567
     94  C         -2.5840   47.8180   61.7000 C.2   179  GLU179      0.2260
     95  O         -2.2760   48.1240   62.8480 O.2   179  GLU179     -0.2867
     96  CB        -2.7020   49.5060   59.8350 C.3   179  GLU179      0.0388
     97  CG        -1.6600   50.4280   60.4170 C.3   179  GLU179      0.1160
     98  CD        -0.9940   51.3050   59.3540 C.2   179  GLU179      0.3649
     99  OE1        0.2450   51.4330   59.3880 O.co2 179  GLU179     -0.2457
    100  OE2       -1.7130   51.8710   58.4950 O.co2 179  GLU179     -0.2457
    101  N         -2.6780   49.9670   50.8460 N.3   253  GLU253     -0.1245
    102  CA        -1.9230   51.0920   50.3000 C.3   253  GLU253      0.1567
    103  C         -0.4410   50.8170   50.0560 C.2   253  GLU253      0.2260
    104  O          0.1170   49.8500   50.5720 O.2   253  GLU253     -0.2867
    105  CB        -2.0380   52.2680   51.2670 C.3   253  GLU253      0.0388
    106  CG        -1.3180   52.0090   52.5830 C.3   253  GLU253      0.1160
    107  CD        -1.8380   52.8580   53.7180 C.2   253  GLU253      0.3649
    108  OE1       -2.9440   52.5640   54.2270 O.co2 253  GLU253     -0.2457
    109  OE2       -1.1440   53.8180   54.0960 O.co2 253  GLU253     -0.2457
    110  N          3.2020   52.0330   50.8020 N.3   255  ARG255     -0.1245
    111  CA         4.0020   52.9040   51.6510 C.3   255  ARG255      0.1563
    112  C          5.1610   53.4660   50.8440 C.2   255  ARG255      0.2260
    113  O          5.5850   52.8760   49.8500 O.2   255  ARG255     -0.2867
    114  CB         4.5630   52.1490   52.8570 C.3   255  ARG255      0.0307
    115  CG         3.5590   51.8180   53.9350 C.3   255  ARG255      0.0489
    116  CD         4.2850   51.2500   55.1500 C.3   255  ARG255      0.2205
    117  NE         3.3780   50.7460   56.1740 N.pl3 255  ARG255     -0.0865
    118  CZ         3.7120   49.8090   57.0550 C.cat 255  ARG255      0.5346
    119  NH1        4.9320   49.2790   57.0270 N.pl3 255  ARG255      0.1354
    120  NH2        2.8320   49.3960   57.9600 N.pl3 255  ARG255      0.1354
    121  N          0.5680   47.8560   52.4650 N.3   261  SER261     -0.1217
    122  CA         0.0690   47.7640   53.8320 C.3   261  SER261      0.1889
    123  C         -1.4520   47.9000   53.8510 C.2   261  SER261      0.2288
    124  O         -2.0110   48.7260   53.1300 O.2   261  SER261     -0.2866
    125  CB         0.7040   48.8770   54.6670 C.3   261  SER261      0.2089
    126  OG         0.3420   48.7920   56.0290 O.3   261  SER261     -0.2183
    127  N         -9.5090   53.2580   57.8380 N.3   265  TYR265     -0.1241
    128  CA        -9.6270   54.6180   58.3430 C.3   265  TYR265      0.1605
    129  C        -11.0450   55.1360   58.4760 C.2   265  TYR265      0.2264
    130  O        -11.9090   54.8170   57.6660 O.2   265  TYR265     -0.2867
    131  CB        -8.8660   55.5840   57.4270 C.3   265  TYR265      0.0534
    132  CG        -7.4570   55.1550   57.0920 C.ar  265  TYR265     -0.0201
    133  CD1       -7.1990   54.2900   56.0270 C.ar  265  TYR265     -0.0009
    134  CD2       -6.3830   55.5900   57.8650 C.ar  265  TYR265     -0.0009
    135  CE1       -5.9000   53.8690   55.7450 C.ar  265  TYR265      0.0417
    136  CE2       -5.0870   55.1770   57.5960 C.ar  265  TYR265      0.0417
    137  CZ        -4.8510   54.3170   56.5410 C.ar  265  TYR265      0.1957
    138  OH        -3.5700   53.8850   56.3170 O.3   265  TYR265     -0.2866
    139  N          1.5300   62.2830   51.7530 N.3   305  TYR305     -0.1241
    140  CA         1.6830   60.9160   52.2340 C.3   305  TYR305      0.1605
    141  C          3.1600   60.5660   52.4940 C.2   305  TYR305      0.2264
    142  O          3.5020   60.0270   53.5460 O.2   305  TYR305     -0.2867
    143  CB         1.0890   59.9490   51.2080 C.3   305  TYR305      0.0534
    144  CG         1.0660   58.5050   51.6550 C.ar  305  TYR305     -0.0201
    145  CD1        0.0830   58.0330   52.5260 C.ar  305  TYR305     -0.0009
    146  CD2        2.0270   57.6060   51.1990 C.ar  305  TYR305     -0.0009
    147  CE1        0.0590   56.7020   52.9240 C.ar  305  TYR305      0.0417
    148  CE2        2.0130   56.2750   51.5890 C.ar  305  TYR305      0.0417
    149  CZ         1.0300   55.8270   52.4480 C.ar  305  TYR305      0.1957
    150  OH         1.0230   54.5010   52.8170 O.3   305  TYR305     -0.2866
@<TRIPOS>BOND
     1   113   112    2
     2   103   102    1
     3   103   104    2
     4   102   101    1
     5   102   105    1
     6     1     2    1
     7   110   111    1
     8   112   111    1
     9   146   148   ar
    10   146   144   ar
    11   143   144    1
    12   143   140    1
    13     4     3    2
    14   105   106    1
    15   148   149   ar
    16   111   114    1
    17   144   145   ar
    18   139   140    1
    19     2     3    1
    20     2     5    1
    21     5     6    1
    22   140   141    1
    23   149   150    1
    24   149   147   ar
    25   121   122    1
    26   141   142    2
    27   145   147   ar
    28   106   107    1
    29   114   115    1
    30   124   123    2
    31     6     8   ar
    32     6     7   ar
    33     8    10   ar
    34   107   109   ar
    35   107   108   ar
    36   122   123    1
    37   122   125    1
    38    43    42    2
    39   115   116    1
    40     7     9   ar
    41   125   126    1
    42    10    11   ar
    43    42    44   am
    44    42    41    1
    45   116   117    1
    46    25    24    1
    47    63    61    1
    48    24    21    1
    49   135   133   ar
    50   135   137   ar
    51     9    11   ar
    52    41    38    1
    53    11    12    1
    54   133   132   ar
    55   117   118    2
    56   138   137    1
    57    60    61    2
    58    60    59    1
    59    61    62    1
    60   137   136   ar
    61    38    37    1
    62    38    39    1
    63    58    59    1
    64    58    57    1
    65   119   118    1
    66   118   120    1
    67    21    22    1
    68    21    20    1
    69   132   131    1
    70   132   134   ar
    71    40    39    2
    72    22    23    2
    73   131   128    1
    74    53    54    1
    75   136   134   ar
    76    39    45   am
    77   130   129    2
    78    54    57    1
    79    54    55    1
    80   127   128    1
    81    20    15   am
    82   128   129    1
    83   100    98   ar
    84    56    55    2
    85    45    46    1
    86    13    14    1
    87    15    16    2
    88    15    14    1
    89    98    99   ar
    90    98    97    1
    91    96    97    1
    92    96    93    1
    93    46    47    1
    94    46    49    1
    95    14    17    1
    96    17    19    1
    97    17    18    1
    98    47    48    2
    99    51    50   ar
   100    30    31    1
   101    30    27    1
   102    93    94    1
   103    93    92    1
   104    91    90    1
   105    31    32    1
   106    50    49    1
   107    50    52   ar
   108    90    87    1
   109    26    27    1
   110    28    27    1
   111    28    29    2
   112    87    88    1
   113    87    86    1
   114    94    95    2
   115    88    89    2
   116    32    33    1
   117    33    34    2
   118    84    83   ar
   119    34    36    1
   120    34    35    1
   121    81    80    2
   122    82    83    1
   123    82    79    1
   124    83    85   ar
   125    67    66    2
   126    68    69    1
   127    68    65    1
   128    80    79    1
   129    78    79    1
   130    78    72   am
   131    64    65    1
   132    66    65    1
   133    66    70   am
   134    71    72    1
   135    71    70    1
   136    71    74    1
   137    72    73    2
   138    75    74    1
   139    75    76    1
   140    76    77    1
