@<TRIPOS>MOLECULE
tmp/1j1zA02.pdb
 110 102 0 0 0
SMALL
GASTEIGER

@<TRIPOS>ATOM
      1  N          1.7360   64.5980   61.2330 N.3    92  ARG92      -0.1245
      2  CA         3.1520   64.4400   61.5580 C.3    92  ARG92       0.1563
      3  C          4.0300   65.6930   61.3800 C.2    92  ARG92       0.2260
      4  O          4.8410   66.0100   62.2510 O.2    92  ARG92      -0.2867
      5  CB         3.7380   63.2730   60.7600 C.3    92  ARG92       0.0307
      6  CG         3.0270   61.9390   60.9720 C.3    92  ARG92       0.0489
      7  CD         2.6620   61.6680   62.4430 C.3    92  ARG92       0.2205
      8  NE         2.3440   60.2600   62.6650 N.pl3  92  ARG92      -0.0865
      9  CZ         1.7170   59.7800   63.7390 C.cat  92  ARG92       0.5346
     10  NH1        1.3220   60.5980   64.7070 N.pl3  92  ARG92       0.1354
     11  NH2        1.4970   58.4770   63.8500 N.pl3  92  ARG92       0.1354
     12  N          9.2420   57.8520   67.9460 N.3   114  GLY114     -0.1210
     13  CA         9.1280   56.4130   68.0380 C.3   114  GLY114      0.1956
     14  C          8.4990   55.7350   66.8390 C.2   114  GLY114      0.2612
     15  O          7.8510   54.7010   66.9870 O.2   114  GLY114     -0.2717
     16  N          8.6700   56.3060   65.6510 N.am  115  ALA115     -0.1965
     17  CA         8.1130   55.6930   64.4490 C.3   115  ALA115      0.1728
     18  C          9.0550   54.5550   64.0800 C.2   115  ALA115      0.2616
     19  O         10.2650   54.6990   64.2260 O.2   115  ALA115     -0.2715
     20  CB         8.0460   56.7090   63.3210 C.3   115  ALA115      0.0334
     21  N          8.5170   53.4310   63.6180 N.am  116  THR116     -0.1951
     22  CA         9.3660   52.2950   63.2540 C.3   116  THR116      0.1897
     23  C         10.0800   52.5360   61.9280 C.2   116  THR116      0.2313
     24  O          9.7480   53.4670   61.1920 O.2   116  THR116     -0.2863
     25  CB         8.5690   50.9870   63.1170 C.3   116  THR116      0.1794
     26  OG1        7.9340   50.9520   61.8360 O.3   116  THR116     -0.2208
     27  CG2        7.5120   50.8780   64.2200 C.3   116  THR116      0.0378
     28  N          9.9240   50.7400   59.3010 N.3   118  LYS118     -0.1231
     29  CA         9.2210   50.2280   58.1290 C.3   118  LYS118      0.1693
     30  C          7.9710   51.0100   57.7450 C.2   118  LYS118      0.2593
     31  O          7.2430   50.6140   56.8390 O.2   118  LYS118     -0.2718
     32  CB         8.8620   48.7520   58.3120 C.3   118  LYS118      0.0285
     33  CG         8.0970   48.4380   59.5620 C.3   118  LYS118      0.0035
     34  CD         8.7540   47.2650   60.2950 C.3   118  LYS118      0.0206
     35  CE         8.7850   46.0010   59.4540 C.3   118  LYS118      0.1093
     36  NZ         9.5910   44.9270   60.1320 N.3   118  LYS118     -0.1314
     37  N          7.7350   52.1270   58.4250 N.am  119  GLY119     -0.1942
     38  CA         6.5660   52.9230   58.1190 C.3   119  GLY119      0.2014
     39  C          6.8550   54.2490   57.4520 C.2   119  GLY119      0.2639
     40  O          8.0020   54.5530   57.1170 O.2   119  GLY119     -0.2714
     41  N          5.7970   55.0380   57.2660 N.am  120  ASN120     -0.1958
     42  CA         5.8830   56.3510   56.6430 C.3   120  ASN120      0.1819
     43  C          6.1540   57.4550   57.6610 C.2   120  ASN120      0.2621
     44  O          6.7620   58.4720   57.3270 O.2   120  ASN120     -0.2715
     45  CB         4.5680   56.6910   55.9220 C.3   120  ASN120      0.1195
     46  CG         4.2130   55.6920   54.8400 C.2   120  ASN120      0.2630
     47  OD1        4.9730   55.4830   53.8930 O.2   120  ASN120     -0.2716
     48  ND2        3.0500   55.0670   54.9750 N.am  120  ASN120     -0.0877
     49  N          5.7010   57.2620   58.8970 N.am  121  ASP121     -0.1957
     50  CA         5.8650   58.2900   59.9190 C.3   121  ASP121      0.1840
     51  C          7.2940   58.7430   60.1590 C.2   121  ASP121      0.2621
     52  O          7.5350   59.9280   60.4060 O.2   121  ASP121     -0.2715
     53  CB         5.2110   57.8550   61.2400 C.3   121  ASP121      0.1450
     54  CG         3.6810   57.8380   61.1560 C.2   121  ASP121      0.3671
     55  OD1        3.1140   58.6840   60.4300 O.co2 121  ASP121     -0.2456
     56  OD2        3.0450   56.9940   61.8210 O.co2 121  ASP121     -0.2456
     57  N          8.2410   57.8140   60.0770 N.am  122  GLN122     -0.1977
     58  CA         9.6490   58.1500   60.2690 C.3   122  GLN122      0.1601
     59  C         10.0930   59.1620   59.2030 C.2   122  GLN122      0.2287
     60  O         10.8410   60.0990   59.4910 O.2   122  GLN122     -0.2864
     61  CB        10.5100   56.8880   60.1670 C.3   122  GLN122      0.0394
     62  CG        10.5650   56.2910   58.7620 C.3   122  GLN122      0.0908
     63  CD        11.3280   54.9860   58.7050 C.2   122  GLN122      0.2608
     64  OE1       12.3520   54.8230   59.3740 O.2   122  GLN122     -0.2717
     65  NE2       10.8430   54.0500   57.8970 N.am  122  GLN122     -0.0878
     66  N          8.1130   61.3170   57.4760 N.3   124  ARG124     -0.1245
     67  CA         7.4310   62.5940   57.6910 C.3   124  ARG124      0.1563
     68  C          8.1270   63.4070   58.7820 C.2   124  ARG124      0.2260
     69  O          8.4050   64.5970   58.6040 O.2   124  ARG124     -0.2867
     70  CB         5.9580   62.3510   58.0600 C.3   124  ARG124      0.0307
     71  CG         5.1350   61.7420   56.9230 C.3   124  ARG124      0.0489
     72  CD         3.8870   61.0140   57.4320 C.3   124  ARG124      0.2205
     73  NE         3.2490   60.2570   56.3580 N.pl3 124  ARG124     -0.0865
     74  CZ         2.3370   59.3030   56.5320 C.cat 124  ARG124      0.5346
     75  NH1        1.9330   58.9710   57.7560 N.pl3 124  ARG124      0.1354
     76  NH2        1.8410   58.6700   55.4780 N.pl3 124  ARG124      0.1354
     77  N         -2.8340   48.1840   65.5650 N.3   168  SER168     -0.1217
     78  CA        -2.2810   49.4810   65.9440 C.3   168  SER168      0.1889
     79  C         -3.2480   50.6270   65.6050 C.2   168  SER168      0.2288
     80  O         -4.0610   50.5110   64.6930 O.2   168  SER168     -0.2866
     81  CB        -0.9530   49.6890   65.2000 C.3   168  SER168      0.2089
     82  OG        -0.4490   50.9980   65.3720 O.3   168  SER168     -0.2183
     83  N         -3.8020   55.2080   65.4490 N.3   170  ASP170     -0.1239
     84  CA        -3.2930   56.5780   65.4840 C.3   170  ASP170      0.1674
     85  C         -4.5140   57.4660   65.3150 C.2   170  ASP170      0.2266
     86  O         -5.1760   57.4400   64.2670 O.2   170  ASP170     -0.2867
     87  CB        -2.2990   56.8940   64.3700 C.3   170  ASP170      0.1410
     88  CG        -1.7210   58.2990   64.5140 C.2   170  ASP170      0.3668
     89  OD1       -1.7980   59.1070   63.5620 O.co2 170  ASP170     -0.2456
     90  OD2       -1.1940   58.6040   65.6010 O.co2 170  ASP170     -0.2456
     91  N         -4.3050   49.5950   61.7090 N.3   179  GLU179     -0.1245
     92  CA        -3.5140   48.7020   60.8680 C.3   179  GLU179      0.1567
     93  C         -2.5840   47.8180   61.7000 C.2   179  GLU179      0.2260
     94  O         -2.2760   48.1240   62.8480 O.2   179  GLU179     -0.2867
     95  CB        -2.7020   49.5060   59.8350 C.3   179  GLU179      0.0388
     96  CG        -1.6600   50.4280   60.4170 C.3   179  GLU179      0.1160
     97  CD        -0.9940   51.3050   59.3540 C.2   179  GLU179      0.3649
     98  OE1        0.2450   51.4330   59.3880 O.co2 179  GLU179     -0.2457
     99  OE2       -1.7130   51.8710   58.4950 O.co2 179  GLU179     -0.2457
    100  N          3.2020   52.0330   50.8020 N.3   255  ARG255     -0.1245
    101  CA         4.0020   52.9040   51.6510 C.3   255  ARG255      0.1563
    102  C          5.1610   53.4660   50.8440 C.2   255  ARG255      0.2260
    103  O          5.5850   52.8760   49.8500 O.2   255  ARG255     -0.2867
    104  CB         4.5630   52.1490   52.8570 C.3   255  ARG255      0.0307
    105  CG         3.5590   51.8180   53.9350 C.3   255  ARG255      0.0489
    106  CD         4.2850   51.2500   55.1500 C.3   255  ARG255      0.2205
    107  NE         3.3780   50.7460   56.1740 N.pl3 255  ARG255     -0.0865
    108  CZ         3.7120   49.8090   57.0550 C.cat 255  ARG255      0.5346
    109  NH1        4.9320   49.2790   57.0270 N.pl3 255  ARG255      0.1354
    110  NH2        2.8320   49.3960   57.9600 N.pl3 255  ARG255      0.1354
@<TRIPOS>BOND
     1   103   102    2
     2   100   101    1
     3   102   101    1
     4   101   104    1
     5   104   105    1
     6    47    46    2
     7   105   106    1
     8    46    48   am
     9    46    45    1
    10   106   107    1
    11    76    74    1
    12    45    42    1
    13   107   108    2
    14    73    74    2
    15    73    72    1
    16    74    75    1
    17    42    41    1
    18    42    43    1
    19    31    30    2
    20    71    72    1
    21    71    70    1
    22   109   108    1
    23   108   110    1
    24    40    39    2
    25    41    39   am
    26    44    43    2
    27    39    38    1
    28    66    67    1
    29    43    49   am
    30    67    70    1
    31    67    68    1
    32    30    29    1
    33    30    37   am
    34    65    63   am
    35    38    37    1
    36    29    32    1
    37    29    28    1
    38    32    33    1
    39    99    97   ar
    40    69    68    2
    41    63    62    1
    42    63    64    2
    43    62    61    1
    44    49    50    1
    45    59    60    2
    46    59    58    1
    47    97    98   ar
    48    97    96    1
    49    35    36    1
    50    35    34    1
    51    33    34    1
    52    95    96    1
    53    95    92    1
    54    50    51    1
    55    50    53    1
    56    57    51   am
    57    57    58    1
    58    51    52    2
    59    61    58    1
    60    55    54   ar
    61     5     6    1
    62     5     2    1
    63    92    93    1
    64    92    91    1
    65     6     7    1
    66    54    53    1
    67    54    56   ar
    68    24    23    2
    69     1     2    1
    70     3     2    1
    71     3     4    2
    72    93    94    2
    73    26    25    1
    74    23    22    1
    75     7     8    1
    76     8     9    2
    77    25    22    1
    78    25    27    1
    79    22    21    1
    80    20    17    1
    81    89    88   ar
    82    21    18   am
    83     9    11    1
    84     9    10    1
    85    18    19    2
    86    18    17    1
    87    86    85    2
    88    87    88    1
    89    87    84    1
    90    17    16    1
    91    88    90   ar
    92    80    79    2
    93    81    82    1
    94    81    78    1
    95    85    84    1
    96    83    84    1
    97    77    78    1
    98    79    78    1
    99    16    14   am
   100    14    15    2
   101    14    13    1
   102    12    13    1
