@<TRIPOS>MOLECULE
tmp/1j1zA00.pdb
 172 163 0 0 0
SMALL
GASTEIGER

@<TRIPOS>ATOM
      1  N          9.3140   63.1250   70.9670 N.3     6  ALA6       -0.1231
      2  CA         7.9050   63.2390   70.6160 C.3     6  ALA6        0.1694
      3  C          7.3280   62.1180   71.4730 C.2     6  ALA6        0.2592
      4  O          7.4320   60.9440   71.1300 O.2     6  ALA6       -0.2718
      5  CB         7.6960   62.9500   69.1340 C.3     6  ALA6        0.0304
      6  N          6.7500   62.4930   72.6050 N.am    7  TYR7       -0.1962
      7  CA         6.2090   61.5330   73.5650 C.3     7  TYR7        0.1771
      8  C          4.6930   61.4430   73.5030 C.2     7  TYR7        0.2620
      9  O          3.9930   62.3910   73.8430 O.2     7  TYR7       -0.2715
     10  CB         6.6660   61.9400   74.9740 C.3     7  TYR7        0.0574
     11  CG         6.3170   60.9640   76.0750 C.ar    7  TYR7       -0.0198
     12  CD1        6.9020   59.6970   76.1310 C.ar    7  TYR7       -0.0009
     13  CD2        5.3990   61.3100   77.0630 C.ar    7  TYR7       -0.0009
     14  CE1        6.5730   58.7950   77.1550 C.ar    7  TYR7        0.0417
     15  CE2        5.0620   60.4250   78.0830 C.ar    7  TYR7        0.0417
     16  CZ         5.6480   59.1710   78.1290 C.ar    7  TYR7        0.1957
     17  OH         5.2910   58.2990   79.1420 O.3     7  TYR7       -0.2866
     18  N          4.1950   60.2910   73.0700 N.am    8  SER8       -0.1950
     19  CA         2.7610   60.0660   72.9490 C.3     8  SER8        0.1924
     20  C          2.1640   59.5250   74.2480 C.2     8  SER8        0.2314
     21  O          0.9440   59.3820   74.3680 O.2     8  SER8       -0.2863
     22  CB         2.4810   59.0890   71.8090 C.3     8  SER8        0.2116
     23  OG         3.0650   57.8270   72.0810 O.3     8  SER8       -0.2180
     24  N          2.5000   56.5260   75.4560 N.3    10  GLY10      -0.1225
     25  CA         2.2950   55.0850   75.4510 C.3    10  GLY10       0.1811
     26  C          3.4650   54.2650   75.9710 C.2    10  GLY10       0.2280
     27  O          4.4660   54.8130   76.4330 O.2    10  GLY10      -0.2866
     28  N          5.6510   52.1260   74.2770 N.3    12  ASP12      -0.1225
     29  CA         6.8480   52.2990   73.4580 C.3    12  ASP12       0.1805
     30  C          7.5930   53.6220   73.6310 C.2    12  ASP12       0.2598
     31  O          8.8160   53.6170   73.7880 O.2    12  ASP12      -0.2718
     32  CB         6.5090   52.0810   71.9860 C.3    12  ASP12       0.1424
     33  CG         6.0730   50.6610   71.7030 C.2    12  ASP12       0.3668
     34  OD1        6.3340   49.7860   72.5540 O.co2  12  ASP12      -0.2456
     35  OD2        5.4830   50.4100   70.6330 O.co2  12  ASP12      -0.2456
     36  N          6.8960   54.7570   73.6040 N.am   13  THR13      -0.1953
     37  CA         7.6160   56.0200   73.7670 C.3    13  THR13       0.1897
     38  C          8.1550   56.1910   75.1880 C.2    13  THR13       0.2313
     39  O          9.1020   56.9480   75.4070 O.2    13  THR13      -0.2863
     40  CB         6.7580   57.2570   73.3880 C.3    13  THR13       0.1794
     41  OG1        5.4680   57.1690   74.0070 O.3    13  THR13      -0.2208
     42  CG2        6.6090   57.3530   71.8720 C.3    13  THR13       0.0378
     43  N          7.7930   66.0140   74.6350 N.3    31  PHE31      -0.1227
     44  CA         6.8090   66.8950   74.0270 C.3    31  PHE31       0.1736
     45  C          5.6240   66.0630   73.5930 C.2    31  PHE31       0.2596
     46  O          5.7710   65.1150   72.8130 O.2    31  PHE31      -0.2718
     47  CB         7.3660   67.6130   72.8030 C.3    31  PHE31       0.0547
     48  CG         6.2980   68.2640   71.9570 C.ar   31  PHE31      -0.0202
     49  CD1        5.5030   69.2840   72.4780 C.ar   31  PHE31      -0.0042
     50  CD2        6.0570   67.8270   70.6600 C.ar   31  PHE31      -0.0042
     51  CE1        4.4750   69.8620   71.7170 C.ar   31  PHE31      -0.0003
     52  CE2        5.0300   68.3990   69.8880 C.ar   31  PHE31      -0.0003
     53  CZ         4.2390   69.4190   70.4230 C.ar   31  PHE31      -0.0000
     54  N          4.4540   66.4050   74.1210 N.am   32  THR32      -0.1939
     55  CA         3.2290   65.7130   73.7650 C.3    32  THR32       0.2028
     56  C          2.2980   66.7660   73.2000 C.2    32  THR32       0.2642
     57  O          2.1040   67.8290   73.8060 O.2    32  THR32      -0.2714
     58  CB         2.5610   65.0590   74.9860 C.3    32  THR32       0.1808
     59  OG1        3.5020   64.1960   75.6350 O.3    32  THR32      -0.2208
     60  CG2        1.3450   64.2400   74.5550 C.3    32  THR32       0.0379
     61  N          1.7440   66.4850   72.0280 N.am   33  ALA33      -0.1977
     62  CA         0.8320   67.4180   71.3890 C.3    33  ALA33       0.1597
     63  C         -0.6010   66.9210   71.4460 C.2    33  ALA33       0.2287
     64  O         -0.8660   65.7230   71.3240 O.2    33  ALA33      -0.2864
     65  CB         1.2370   67.6360   69.9430 C.3    33  ALA33       0.0319
     66  N         -3.7230   66.9280   69.4540 N.3    35  ILE35      -0.1245
     67  CA        -4.2230   67.1880   68.1130 C.3    35  ILE35       0.1561
     68  C         -5.5490   66.4670   67.9050 C.2    35  ILE35       0.2260
     69  O         -5.9310   66.1750   66.7750 O.2    35  ILE35      -0.2867
     70  CB        -3.2140   66.7230   67.0310 C.3    35  ILE35       0.0252
     71  CG1       -2.8460   65.2520   67.2470 C.3    35  ILE35       0.0019
     72  CG2       -1.9660   67.5870   67.0750 C.3    35  ILE35       0.0019
     73  CD1       -1.8960   64.6950   66.1980 C.3    35  ILE35       0.0001
     74  N         -6.5100   63.4330   69.7390 N.3    37  GLN37      -0.1245
     75  CA        -6.4500   61.9880   69.9370 C.3    37  GLN37       0.1566
     76  C         -7.5070   61.5850   70.9460 C.2    37  GLN37       0.2260
     77  O         -7.7660   60.4010   71.1460 O.2    37  GLN37      -0.2867
     78  CB        -5.0970   61.5330   70.4970 C.3    37  GLN37       0.0367
     79  CG        -3.8780   62.2760   70.0130 C.3    37  GLN37       0.0905
     80  CD        -3.6380   63.5600   70.7780 C.2    37  GLN37       0.2608
     81  OE1       -4.2690   64.5760   70.5080 O.2    37  GLN37      -0.2717
     82  NE2       -2.7270   63.5170   71.7460 N.am   37  GLN37      -0.0878
     83  N          1.7360   64.5980   61.2330 N.3    92  ARG92      -0.1245
     84  CA         3.1520   64.4400   61.5580 C.3    92  ARG92       0.1563
     85  C          4.0300   65.6930   61.3800 C.2    92  ARG92       0.2260
     86  O          4.8410   66.0100   62.2510 O.2    92  ARG92      -0.2867
     87  CB         3.7380   63.2730   60.7600 C.3    92  ARG92       0.0307
     88  CG         3.0270   61.9390   60.9720 C.3    92  ARG92       0.0489
     89  CD         2.6620   61.6680   62.4430 C.3    92  ARG92       0.2205
     90  NE         2.3440   60.2600   62.6650 N.pl3  92  ARG92      -0.0865
     91  CZ         1.7170   59.7800   63.7390 C.cat  92  ARG92       0.5346
     92  NH1        1.3220   60.5980   64.7070 N.pl3  92  ARG92       0.1354
     93  NH2        1.4970   58.4770   63.8500 N.pl3  92  ARG92       0.1354
     94  N          3.7350   68.0500   64.4100 N.3    95  ILE95      -0.1245
     95  CA         4.4760   67.6010   65.5770 C.3    95  ILE95       0.1561
     96  C          5.9730   67.8120   65.3740 C.2    95  ILE95       0.2260
     97  O          6.6570   68.3060   66.2660 O.2    95  ILE95      -0.2867
     98  CB         4.2200   66.1180   65.8530 C.3    95  ILE95       0.0252
     99  CG1        2.7440   65.9160   66.2000 C.3    95  ILE95       0.0019
    100  CG2        5.1340   65.6290   66.9760 C.3    95  ILE95       0.0019
    101  CD1        2.3110   64.4790   66.1900 C.3    95  ILE95       0.0001
    102  N         11.8400   60.3150   67.8820 N.3   113  HIS113     -0.1226
    103  CA        10.4600   59.9260   67.6720 C.3   113  HIS113      0.1752
    104  C         10.4280   58.4110   67.7470 C.2   113  HIS113      0.2597
    105  O         11.4690   57.7550   67.6320 O.2   113  HIS113     -0.2718
    106  CB         9.9570   60.4200   66.3080 C.3   113  HIS113      0.0759
    107  CG        10.6540   59.7960   65.1420 C.ar  113  HIS113      0.0818
    108  ND1       10.4580   58.4840   64.7730 N.ar  113  HIS113     -0.2268
    109  CD2       11.5640   60.3000   64.2750 C.ar  113  HIS113      0.1154
    110  CE1       11.2170   58.2050   63.7290 C.ar  113  HIS113      0.1986
    111  NE2       11.8980   59.2900   63.4080 N.ar  113  HIS113     -0.2212
    112  N          9.2420   57.8520   67.9460 N.am  114  GLY114     -0.1942
    113  CA         9.1280   56.4130   68.0380 C.3   114  GLY114      0.2014
    114  C          8.4990   55.7350   66.8390 C.2   114  GLY114      0.2638
    115  O          7.8510   54.7010   66.9870 O.2   114  GLY114     -0.2714
    116  N          8.6700   56.3060   65.6510 N.am  115  ALA115     -0.1977
    117  CA         8.1130   55.6930   64.4490 C.3   115  ALA115      0.1597
    118  C          9.0550   54.5550   64.0800 C.2   115  ALA115      0.2287
    119  O         10.2650   54.6990   64.2260 O.2   115  ALA115     -0.2864
    120  CB         8.0460   56.7090   63.3210 C.3   115  ALA115      0.0319
    121  N          5.7010   57.2620   58.8970 N.3   121  ASP121     -0.1239
    122  CA         5.8650   58.2900   59.9190 C.3   121  ASP121      0.1674
    123  C          7.2940   58.7430   60.1590 C.2   121  ASP121      0.2266
    124  O          7.5350   59.9280   60.4060 O.2   121  ASP121     -0.2867
    125  CB         5.2110   57.8550   61.2400 C.3   121  ASP121      0.1410
    126  CG         3.6810   57.8380   61.1560 C.2   121  ASP121      0.3668
    127  OD1        3.1140   58.6840   60.4300 O.co2 121  ASP121     -0.2456
    128  OD2        3.0450   56.9940   61.8210 O.co2 121  ASP121     -0.2456
    129  N          8.4220   62.7600   59.9050 N.3   125  PHE125     -0.1241
    130  CA         9.0890   63.4410   61.0100 C.3   125  PHE125      0.1605
    131  C         10.4610   63.9830   60.6080 C.2   125  PHE125      0.2264
    132  O         10.7860   65.1420   60.8590 O.2   125  PHE125     -0.2867
    133  CB         9.2650   62.4860   62.1950 C.3   125  PHE125      0.0534
    134  CG         8.0000   62.2130   62.9600 C.ar  125  PHE125     -0.0203
    135  CD1        7.7200   60.9350   63.4180 C.ar  125  PHE125     -0.0042
    136  CD2        7.0980   63.2310   63.2360 C.ar  125  PHE125     -0.0042
    137  CE1        6.5560   60.6690   64.1420 C.ar  125  PHE125     -0.0003
    138  CE2        5.9270   62.9760   63.9620 C.ar  125  PHE125     -0.0003
    139  CZ         5.6610   61.6940   64.4110 C.ar  125  PHE125     -0.0000
    140  N          8.5220   41.6500   71.1750 N.3   150  ARG150     -0.1245
    141  CA         7.6570   42.3150   72.1590 C.3   150  ARG150      0.1563
    142  C          8.0260   41.9000   73.5910 C.2   150  ARG150      0.2260
    143  O          8.1670   42.7360   74.4910 O.2   150  ARG150     -0.2867
    144  CB         6.1950   41.9400   71.8780 C.3   150  ARG150      0.0307
    145  CG         5.1380   42.8270   72.5360 C.3   150  ARG150      0.0489
    146  CD         4.9650   44.1410   71.7770 C.3   150  ARG150      0.2205
    147  NE         5.7860   45.2150   72.3300 N.pl3 150  ARG150     -0.0865
    148  CZ         5.8710   46.4380   71.8160 C.cat 150  ARG150      0.5346
    149  NH1        5.1940   46.7590   70.7220 N.pl3 150  ARG150      0.1354
    150  NH2        6.6220   47.3510   72.4140 N.pl3 150  ARG150      0.1354
    151  N         -2.8340   48.1840   65.5650 N.3   168  SER168     -0.1202
    152  CA        -2.2810   49.4810   65.9440 C.3   168  SER168      0.2020
    153  C         -3.2480   50.6270   65.6050 C.2   168  SER168      0.2619
    154  O         -4.0610   50.5110   64.6930 O.2   168  SER168     -0.2717
    155  CB        -0.9530   49.6890   65.2000 C.3   168  SER168      0.2103
    156  OG        -0.4490   50.9980   65.3720 O.3   168  SER168     -0.2182
    157  N         -3.1390   51.7360   66.3310 N.am  169  MET169     -0.1965
    158  CA        -4.0020   52.8910   66.1090 C.3   169  MET169      0.1736
    159  C         -3.2800   54.2280   66.1860 C.2   169  MET169      0.2616
    160  O         -2.2780   54.3650   66.8820 O.2   169  MET169     -0.2715
    161  CB        -5.1300   52.9300   67.1500 C.3   169  MET169      0.0427
    162  CG        -6.2590   51.9370   66.9400 C.3   169  MET169      0.0599
    163  SD        -7.3530   51.8360   68.3840 S.3   169  MET169     -0.1393
    164  CE        -7.4530   53.6080   68.8850 C.3   169  MET169      0.0692
    165  N         -3.8020   55.2080   65.4490 N.am  170  ASP170     -0.1971
    166  CA        -3.2930   56.5780   65.4840 C.3   170  ASP170      0.1709
    167  C         -4.5140   57.4660   65.3150 C.2   170  ASP170      0.2293
    168  O         -5.1760   57.4400   64.2670 O.2   170  ASP170     -0.2864
    169  CB        -2.2990   56.8940   64.3700 C.3   170  ASP170      0.1436
    170  CG        -1.7210   58.2990   64.5140 C.2   170  ASP170      0.3671
    171  OD1       -1.7980   59.1070   63.5620 O.co2 170  ASP170     -0.2456
    172  OD2       -1.1940   58.6040   65.6010 O.co2 170  ASP170     -0.2456
@<TRIPOS>BOND
     1   121   122    1
     2   129   130    1
     3   122   123    1
     4   122   125    1
     5   123   124    2
     6   127   126   ar
     7   131   132    2
     8   131   130    1
     9    87    88    1
    10    87    84    1
    11    88    89    1
    12   130   133    1
    13   126   125    1
    14   126   128   ar
    15    83    84    1
    16    85    84    1
    17    85    86    2
    18   133   134    1
    19    89    90    1
    20    90    91    2
    21   134   136   ar
    22   134   135   ar
    23   136   138   ar
    24   120   117    1
    25   111   110   ar
    26   111   109   ar
    27   135   137   ar
    28   171   170   ar
    29   110   108   ar
    30    91    93    1
    31    91    92    1
    32   138   139   ar
    33   118   119    2
    34   118   117    1
    35   137   139   ar
    36   168   167    2
    37   109   107   ar
    38   169   170    1
    39   169   166    1
    40    94    95    1
    41   117   116    1
    42   170   172   ar
    43   154   153    2
    44   108   107   ar
    45   107   106    1
    46   155   156    1
    47   155   152    1
    48   167   166    1
    49    96    95    1
    50    96    97    2
    51   165   166    1
    52   165   159   am
    53   151   152    1
    54    95    98    1
    55   153   152    1
    56   153   157   am
    57   116   114   am
    58    98    99    1
    59    98   100    1
    60   158   159    1
    61   158   157    1
    62   158   161    1
    63   159   160    2
    64   101    99    1
    65    73    71    1
    66   106   103    1
    67    69    68    2
    68   114   115    2
    69   114   113    1
    70   162   161    1
    71   162   163    1
    72    70    72    1
    73    70    71    1
    74    70    67    1
    75   105   104    2
    76   103   104    1
    77   103   102    1
    78   104   112   am
    79    68    67    1
    80   112   113    1
    81    67    66    1
    82   163   164    1
    83     5     2    1
    84    74    75    1
    85    52    53   ar
    86    52    50   ar
    87    75    78    1
    88    75    76    1
    89    65    62    1
    90    79    78    1
    91    79    80    1
    92    53    51   ar
    93    81    80    2
    94     2     1    1
    95     2     3    1
    96    35    33   ar
    97    50    48   ar
    98   149   148    1
    99    80    82   am
   100    76    77    2
   101     4     3    2
   102   140   141    1
   103    64    63    2
   104    62    63    1
   105    62    61    1
   106     3     6   am
   107    33    32    1
   108    33    34   ar
   109    51    49   ar
   110   146   147    1
   111   146   145    1
   112    22    23    1
   113    22    19    1
   114   148   147    2
   115   148   150    1
   116    42    40    1
   117   144   141    1
   118   144   145    1
   119    48    49   ar
   120    48    47    1
   121    32    29    1
   122    61    56   am
   123   141   142    1
   124     6     7    1
   125    47    44    1
   126    46    45    2
   127    19    18    1
   128    19    20    1
   129    18     8   am
   130    56    55    1
   131    56    57    2
   132    40    37    1
   133    40    41    1
   134    29    30    1
   135    29    28    1
   136     8     7    1
   137     8     9    2
   138     7    10    1
   139   142   143    2
   140    45    44    1
   141    45    54   am
   142    36    30   am
   143    36    37    1
   144    30    31    2
   145    55    54    1
   146    55    58    1
   147    37    38    1
   148    44    43    1
   149    20    21    2
   150    60    58    1
   151    10    11    1
   152    58    59    1
   153    38    39    2
   154    25    24    1
   155    25    26    1
   156    26    27    2
   157    11    12   ar
   158    11    13   ar
   159    12    14   ar
   160    13    15   ar
   161    14    16   ar
   162    15    16   ar
   163    16    17    1
