@<TRIPOS>MOLECULE
tmp/1j20D01.pdb
 179 168 0 0 0
SMALL
GASTEIGER

@<TRIPOS>ATOM
      1  N         19.2270   66.9050   28.3570 N.3    84  TYR84      -0.1241
      2  CA        19.9390   65.6350   28.3950 C.3    84  TYR84       0.1605
      3  C         19.2590   64.4760   27.6560 C.2    84  TYR84       0.2264
      4  O         18.1740   64.0190   28.0340 O.2    84  TYR84      -0.2867
      5  CB        20.2250   65.2600   29.8490 C.3    84  TYR84       0.0534
      6  CG        21.1030   64.0410   30.0090 C.ar   84  TYR84      -0.0201
      7  CD1       22.1540   63.7880   29.1210 C.ar   84  TYR84      -0.0009
      8  CD2       20.8920   63.1420   31.0570 C.ar   84  TYR84      -0.0009
      9  CE1       22.9680   62.6720   29.2750 C.ar   84  TYR84       0.0417
     10  CE2       21.6940   62.0300   31.2180 C.ar   84  TYR84       0.0417
     11  CZ        22.7350   61.7960   30.3220 C.ar   84  TYR84       0.1957
     12  OH        23.5230   60.6810   30.4730 O.3    84  TYR84      -0.2866
     13  N         24.2930   58.1300   28.7900 N.3    88  THR88      -0.1203
     14  CA        24.8450   57.1730   29.7420 C.3    88  THR88       0.1994
     15  C         23.7330   56.3570   30.4010 C.2    88  THR88       0.2618
     16  O         23.8440   55.1440   30.5510 O.2    88  THR88      -0.2717
     17  CB        25.6900   57.8960   30.8210 C.3    88  THR88       0.1784
     18  OG1       26.8600   58.4570   30.2090 O.3    88  THR88      -0.2211
     19  CG2       26.1170   56.9270   31.9200 C.3    88  THR88       0.0376
     20  N         22.6480   57.0370   30.7560 N.am   89  SER89      -0.1951
     21  CA        21.4950   56.4210   31.4210 C.3    89  SER89       0.1924
     22  C         20.9190   55.1390   30.7910 C.2    89  SER89       0.2314
     23  O         20.7110   54.1600   31.5030 O.2    89  SER89      -0.2863
     24  CB        20.3740   57.4590   31.5600 C.3    89  SER89       0.2116
     25  OG        20.8940   58.6980   31.9950 O.3    89  SER89      -0.2180
     26  N         23.5110   51.7100   31.0610 N.3    92  ARG92      -0.1245
     27  CA        23.6550   50.9200   32.2830 C.3    92  ARG92       0.1563
     28  C         22.7420   49.6970   32.3910 C.2    92  ARG92       0.2260
     29  O         23.2000   48.6110   32.7340 O.2    92  ARG92      -0.2867
     30  CB        23.4680   51.8140   33.5110 C.3    92  ARG92       0.0307
     31  CG        24.3630   53.0510   33.5140 C.3    92  ARG92       0.0489
     32  CD        25.7530   52.7350   32.9970 C.3    92  ARG92       0.2205
     33  NE        26.7010   53.7890   33.3230 N.pl3  92  ARG92      -0.0865
     34  CZ        27.9370   53.8580   32.8400 C.cat  92  ARG92       0.5346
     35  NH1       28.3770   52.9330   32.0010 N.pl3  92  ARG92       0.1354
     36  NH2       28.7320   54.8560   33.1990 N.pl3  92  ARG92       0.1354
     37  N         31.9340   49.6240   38.9430 N.3   114  GLY114     -0.1210
     38  CA        32.7870   50.6830   39.4440 C.3   114  GLY114      0.1956
     39  C         32.1870   52.0770   39.4460 C.2   114  GLY114      0.2612
     40  O         32.9030   53.0530   39.2450 O.2   114  GLY114     -0.2717
     41  N         30.8800   52.1860   39.6630 N.am  115  ALA115     -0.1965
     42  CA        30.2470   53.5030   39.7070 C.3   115  ALA115      0.1728
     43  C         30.4760   54.0180   41.1300 C.2   115  ALA115      0.2616
     44  O         30.5250   53.2210   42.0610 O.2   115  ALA115     -0.2715
     45  CB        28.7560   53.3780   39.4120 C.3   115  ALA115      0.0334
     46  N         30.6310   55.3300   41.3080 N.am  116  THR116     -0.1951
     47  CA        30.8730   55.8730   42.6470 C.3   116  THR116      0.1897
     48  C         29.6230   56.0050   43.5060 C.2   116  THR116      0.2313
     49  O         28.4960   55.8890   43.0170 O.2   116  THR116     -0.2863
     50  CB        31.5350   57.2660   42.6230 C.3   116  THR116      0.1794
     51  OG1       30.5450   58.2590   42.3480 O.3   116  THR116     -0.2208
     52  CG2       32.6380   57.3320   41.5810 C.3   116  THR116      0.0378
     53  N         26.9520   59.1160   42.7170 N.3   119  GLY119     -0.1210
     54  CA        26.1500   59.2830   41.5260 C.3   119  GLY119      0.1956
     55  C         24.8980   58.5020   41.1910 C.2   119  GLY119      0.2612
     56  O         24.3080   57.8600   42.0480 O.2   119  GLY119     -0.2717
     57  N         24.4910   58.5940   39.9200 N.am  120  ASN120     -0.1960
     58  CA        23.2980   57.9250   39.3990 C.3   120  ASN120      0.1819
     59  C         23.5610   56.4920   38.9490 C.2   120  ASN120      0.2621
     60  O         22.7240   55.6130   39.1580 O.2   120  ASN120     -0.2715
     61  CB        22.7180   58.6840   38.1920 C.3   120  ASN120      0.1195
     62  CG        22.3420   60.1200   38.5100 C.2   120  ASN120      0.2630
     63  OD1       21.5800   60.3920   39.4530 O.2   120  ASN120     -0.2716
     64  ND2       22.8600   61.0510   37.7110 N.am  120  ASN120     -0.0877
     65  N         24.7120   56.2600   38.3140 N.am  121  ASP121     -0.1957
     66  CA        25.0470   54.9240   37.8110 C.3   121  ASP121      0.1840
     67  C         24.8980   53.8050   38.8190 C.2   121  ASP121      0.2621
     68  O         24.4680   52.7070   38.4710 O.2   121  ASP121     -0.2715
     69  CB        26.4740   54.8740   37.2560 C.3   121  ASP121      0.1450
     70  CG        26.6190   55.6080   35.9370 C.2   121  ASP121      0.3671
     71  OD1       25.6240   55.7030   35.1760 O.co2 121  ASP121     -0.2456
     72  OD2       27.7390   56.0830   35.6570 O.co2 121  ASP121     -0.2456
     73  N         25.2900   54.0630   40.0610 N.am  122  GLN122     -0.1977
     74  CA        25.1820   53.0420   41.0960 C.3   122  GLN122      0.1601
     75  C         23.7300   52.6060   41.2140 C.2   122  GLN122      0.2287
     76  O         23.4330   51.4180   41.3220 O.2   122  GLN122     -0.2864
     77  CB        25.6720   53.5840   42.4400 C.3   122  GLN122      0.0394
     78  CG        24.9330   54.8170   42.9030 C.3   122  GLN122      0.0908
     79  CD        25.4760   55.3800   44.2000 C.2   122  GLN122      0.2608
     80  OE1       25.2950   56.5610   44.4940 O.2   122  GLN122     -0.2717
     81  NE2       26.1430   54.5400   44.9830 N.am  122  GLN122     -0.0878
     82  N         21.3740   52.8970   38.8660 N.3   124  ARG124     -0.1245
     83  CA        20.9890   52.2300   37.6200 C.3   124  ARG124      0.1563
     84  C         21.4270   50.7660   37.5570 C.2   124  ARG124      0.2260
     85  O         20.6500   49.9100   37.1550 O.2   124  ARG124     -0.2867
     86  CB        21.5490   52.9990   36.4080 C.3   124  ARG124      0.0307
     87  CG        20.9820   54.4020   36.2600 C.3   124  ARG124      0.0489
     88  CD        21.8470   55.2610   35.3460 C.3   124  ARG124      0.2205
     89  NE        21.3560   56.6350   35.2830 N.pl3 124  ARG124     -0.0865
     90  CZ        22.0790   57.6790   34.8910 C.cat 124  ARG124      0.5346
     91  NH1       23.3440   57.5150   34.5220 N.pl3 124  ARG124      0.1354
     92  NH2       21.5390   58.8900   34.8750 N.pl3 124  ARG124      0.1354
     93  N         36.1720   63.7070   33.9080 N.3   168  SER168     -0.1202
     94  CA        35.9060   62.2990   33.6630 C.3   168  SER168      0.2020
     95  C         34.9510   62.1490   32.4810 C.2   168  SER168      0.2619
     96  O         34.0380   62.9570   32.3110 O.2   168  SER168     -0.2717
     97  CB        35.2800   61.6830   34.9140 C.3   168  SER168      0.2103
     98  OG        34.9680   60.3140   34.7120 O.3   168  SER168     -0.2182
     99  N         35.1640   61.1300   31.6550 N.am  169  MET169     -0.1965
    100  CA        34.2810   60.9200   30.5200 C.3   169  MET169      0.1736
    101  C         33.7070   59.5200   30.4500 C.2   169  MET169      0.2616
    102  O         34.2490   58.5700   31.0190 O.2   169  MET169     -0.2715
    103  CB        34.9780   61.2750   29.1900 C.3   169  MET169      0.0427
    104  CG        36.4840   61.3090   29.2130 C.3   169  MET169      0.0599
    105  SD        37.1900   61.9630   27.6550 S.3   169  MET169     -0.1393
    106  CE        36.8840   60.5650   26.5370 C.3   169  MET169      0.0692
    107  N         32.5720   59.4090   29.7700 N.am  170  ASP170     -0.1971
    108  CA        31.9060   58.1320   29.5890 C.3   170  ASP170      0.1709
    109  C         31.3900   58.1930   28.1620 C.2   170  ASP170      0.2293
    110  O         30.5350   59.0250   27.8250 O.2   170  ASP170     -0.2864
    111  CB        30.7450   57.9860   30.5700 C.3   170  ASP170      0.1436
    112  CG        29.9540   56.7260   30.3430 C.2   170  ASP170      0.3671
    113  OD1       28.7180   56.7870   30.4780 O.co2 170  ASP170     -0.2456
    114  OD2       30.5490   55.6700   30.0330 O.co2 170  ASP170     -0.2456
    115  N         29.9440   61.6690   27.6080 N.3   177  SER177     -0.1217
    116  CA        29.6460   62.5200   28.7450 C.3   177  SER177      0.1889
    117  C         30.9490   63.0210   29.3490 C.2   177  SER177      0.2288
    118  O         31.9270   62.2730   29.4190 O.2   177  SER177     -0.2866
    119  CB        28.8770   61.7210   29.8040 C.3   177  SER177      0.2089
    120  OG        29.1610   62.2190   31.0990 O.3   177  SER177     -0.2183
    121  N         32.2770   65.2590   32.8220 N.3   179  GLU179     -0.1245
    122  CA        31.9720   65.9330   34.0780 C.3   179  GLU179      0.1567
    123  C         33.0780   65.7150   35.1090 C.2   179  GLU179      0.2260
    124  O         33.8920   64.8070   34.9800 O.2   179  GLU179     -0.2867
    125  CB        30.5910   65.5110   34.6390 C.3   179  GLU179      0.0388
    126  CG        30.3190   64.0230   34.7580 C.3   179  GLU179      0.1160
    127  CD        28.9390   63.7340   35.3670 C.2   179  GLU179      0.3649
    128  OE1       28.8830   63.2140   36.5090 O.co2 179  GLU179     -0.2457
    129  OE2       27.9100   64.0380   34.7070 O.co2 179  GLU179     -0.2457
    130  N         22.5060   69.5880   36.0920 N.3   253  GLU253     -0.1245
    131  CA        21.3720   68.6850   36.2680 C.3   253  GLU253      0.1567
    132  C         21.2170   68.2180   37.7110 C.2   253  GLU253      0.2260
    133  O         22.1540   68.3090   38.5030 O.2   253  GLU253     -0.2867
    134  CB        21.5780   67.4550   35.3920 C.3   253  GLU253      0.0388
    135  CG        22.6650   66.5200   35.9300 C.3   253  GLU253      0.1160
    136  CD        23.3320   65.7170   34.8480 C.2   253  GLU253      0.3649
    137  OE1       24.1190   66.3050   34.0780 O.co2 253  GLU253     -0.2457
    138  OE2       23.0660   64.5040   34.7530 O.co2 253  GLU253     -0.2457
    139  N         20.8840   65.1820   40.1620 N.3   255  ARG255     -0.1245
    140  CA        21.0500   63.7410   40.2490 C.3   255  ARG255      0.1563
    141  C         19.9120   63.1910   41.1030 C.2   255  ARG255      0.2260
    142  O         19.3130   63.9160   41.8990 O.2   255  ARG255     -0.2867
    143  CB        22.3920   63.3750   40.8810 C.3   255  ARG255      0.0307
    144  CG        23.6050   63.8250   40.0680 C.3   255  ARG255      0.0489
    145  CD        24.8740   63.2460   40.6510 C.3   255  ARG255      0.2205
    146  NE        26.0610   63.6190   39.8840 N.pl3 255  ARG255     -0.0865
    147  CZ        27.2920   63.6210   40.3910 C.cat 255  ARG255      0.5346
    148  NH1       27.4840   63.2730   41.6620 N.pl3 255  ARG255      0.1354
    149  NH2       28.3290   63.9710   39.6370 N.pl3 255  ARG255      0.1354
    150  N         24.7430   68.6720   39.5620 N.3   261  SER261     -0.1217
    151  CA        26.0250   68.3490   38.9650 C.3   261  SER261      0.1889
    152  C         26.1400   68.9940   37.5880 C.2   261  SER261      0.2288
    153  O         25.1820   68.9920   36.8210 O.2   261  SER261     -0.2866
    154  CB        26.1330   66.8290   38.8480 C.3   261  SER261      0.2089
    155  OG        27.2760   66.4250   38.1350 O.3   261  SER261     -0.2183
    156  N         27.7180   67.1920   27.3560 N.3   265  TYR265     -0.1241
    157  CA        27.4800   66.0390   26.4950 C.3   265  TYR265      0.1605
    158  C         27.5070   66.3510   25.0000 C.2   265  TYR265      0.2264
    159  O         27.1190   67.4320   24.5770 O.2   265  TYR265     -0.2867
    160  CB        26.1090   65.4150   26.8080 C.3   265  TYR265      0.0534
    161  CG        25.8220   65.2370   28.2780 C.ar  265  TYR265     -0.0201
    162  CD1       25.2650   66.2700   29.0360 C.ar  265  TYR265     -0.0009
    163  CD2       26.1470   64.0500   28.9220 C.ar  265  TYR265     -0.0009
    164  CE1       25.0390   66.1130   30.4060 C.ar  265  TYR265      0.0417
    165  CE2       25.9350   63.8870   30.2800 C.ar  265  TYR265      0.0417
    166  CZ        25.3830   64.9170   31.0190 C.ar  265  TYR265      0.1957
    167  OH        25.2010   64.7570   32.3750 O.3   265  TYR265     -0.2866
    168  N         16.5290   58.1860   33.6380 N.3   305  TYR305     -0.1241
    169  CA        17.6310   58.8510   34.3370 C.3   305  TYR305      0.1605
    170  C         17.8650   58.2880   35.7400 C.2   305  TYR305      0.2264
    171  O         19.0130   58.1020   36.1490 O.2   305  TYR305     -0.2867
    172  CB        17.3690   60.3600   34.4420 C.3   305  TYR305      0.0534
    173  CG        18.5130   61.1720   35.0060 C.ar  305  TYR305     -0.0201
    174  CD1       19.5820   61.5710   34.2010 C.ar  305  TYR305     -0.0009
    175  CD2       18.5200   61.5580   36.3430 C.ar  305  TYR305     -0.0009
    176  CE1       20.6300   62.3450   34.7180 C.ar  305  TYR305      0.0417
    177  CE2       19.5530   62.3280   36.8760 C.ar  305  TYR305      0.0417
    178  CZ        20.6070   62.7210   36.0560 C.ar  305  TYR305      0.1957
    179  OH        21.6120   63.4910   36.5850 O.3   305  TYR305     -0.2866
@<TRIPOS>BOND
     1   159   158    2
     2   158   157    1
     3   157   160    1
     4   157   156    1
     5   106   105    1
     6   160   161    1
     7   115   116    1
     8   105   104    1
     9     3     4    2
    10     3     2    1
    11   110   109    2
    12   109   108    1
    13   161   163   ar
    14   161   162   ar
    15     1     2    1
    16     2     5    1
    17   116   117    1
    18   116   119    1
    19    13    14    1
    20   163   165   ar
    21   162   164   ar
    22     7     9   ar
    23     7     6   ar
    24   103   104    1
    25   103   100    1
    26     9    11   ar
    27   117   118    2
    28   108   107    1
    29   108   111    1
    30    14    15    1
    31    14    17    1
    32   107   101   am
    33   119   120    1
    34     5     6    1
    35     6     8   ar
    36   114   112   ar
    37    18    17    1
    38   165   166   ar
    39    11    12    1
    40    11    10   ar
    41   112   113   ar
    42   112   111    1
    43    15    16    2
    44    15    20   am
    45   164   166   ar
    46   101   100    1
    47   101   102    2
    48   100    99    1
    49    20    21    1
    50    22    21    1
    51    22    23    2
    52    17    19    1
    53   166   167    1
    54     8    10   ar
    55    26    27    1
    56    21    24    1
    57    24    25    1
    58    99    95   am
    59    35    34    1
    60    27    28    1
    61    27    30    1
    62    96    95    2
    63    28    29    2
    64    95    94    1
    65   121   122    1
    66    34    36    1
    67    34    33    2
    68    32    33    1
    69    32    31    1
    70    30    31    1
    71   168   169    1
    72    94    93    1
    73    94    97    1
    74   122   125    1
    75   122   123    1
    76   137   136   ar
    77   174   176   ar
    78   174   173   ar
    79   169   172    1
    80   169   170    1
    81   172   173    1
    82    91    90    1
    83   125   126    1
    84   129   127   ar
    85    98    97    1
    86   176   178   ar
    87   138   136   ar
    88   126   127    1
    89   136   135    1
    90    92    90    1
    91    90    89    2
    92   124   123    2
    93   173   175   ar
    94    71    70   ar
    95    89    88    1
    96    88    87    1
    97   127   128   ar
    98   134   135    1
    99   134   131    1
   100    72    70   ar
   101   170   171    2
   102    70    69    1
   103   178   179    1
   104   178   177   ar
   105   130   131    1
   106    87    86    1
   107   131   132    1
   108   175   177   ar
   109    86    83    1
   110   153   152    2
   111    85    84    2
   112    69    66    1
   113    84    83    1
   114   152   151    1
   115    83    82    1
   116    64    62   am
   117   132   133    2
   118    66    65    1
   119    66    67    1
   120   155   154    1
   121    61    62    1
   122    61    58    1
   123    65    59   am
   124    68    67    2
   125    62    63    2
   126    67    73   am
   127   154   151    1
   128    37    38    1
   129    59    60    2
   130    59    58    1
   131   151   150    1
   132    40    39    2
   133    58    57    1
   134    45    42    1
   135    38    39    1
   136    39    41   am
   137   149   147    1
   138    41    42    1
   139    42    43    1
   140   146   147    2
   141   146   145    1
   142    57    55   am
   143    73    74    1
   144   144   145    1
   145   144   143    1
   146   139   140    1
   147   140   143    1
   148   140   141    1
   149   147   148    1
   150    74    75    1
   151    74    77    1
   152   141   142    2
   153    43    46   am
   154    43    44    2
   155    55    54    1
   156    55    56    2
   157    75    76    2
   158    46    47    1
   159    54    53    1
   160    52    50    1
   161    51    50    1
   162    77    78    1
   163    50    47    1
   164    47    48    1
   165    78    79    1
   166    49    48    2
   167    79    80    2
   168    79    81   am
