@<TRIPOS>MOLECULE
tmp/1j20D00.pdb
 164 156 0 0 0
SMALL
GASTEIGER

@<TRIPOS>ATOM
      1  N         31.6880   44.4720   36.0620 N.3     6  ALA6       -0.1231
      2  CA        31.4920   45.2790   34.8620 C.3     6  ALA6        0.1694
      3  C         32.8670   45.9290   34.6930 C.2     6  ALA6        0.2592
      4  O         33.1910   46.9210   35.3520 O.2     6  ALA6       -0.2718
      5  CB        30.4250   46.3370   35.1080 C.3     6  ALA6        0.0304
      6  N         33.6650   45.3480   33.8070 N.am    7  TYR7       -0.1962
      7  CA        35.0300   45.7820   33.5610 C.3     7  TYR7        0.1771
      8  C         35.2310   46.5580   32.2580 C.2     7  TYR7        0.2620
      9  O         35.0650   46.0130   31.1740 O.2     7  TYR7       -0.2715
     10  CB        35.9300   44.5360   33.5760 C.3     7  TYR7        0.0574
     11  CG        37.3970   44.8340   33.4260 C.ar    7  TYR7       -0.0198
     12  CD1       38.1230   45.4120   34.4730 C.ar    7  TYR7       -0.0009
     13  CD2       38.0590   44.5610   32.2330 C.ar    7  TYR7       -0.0009
     14  CE1       39.4640   45.7130   34.3320 C.ar    7  TYR7        0.0417
     15  CE2       39.4120   44.8590   32.0790 C.ar    7  TYR7        0.0417
     16  CZ        40.1070   45.4360   33.1260 C.ar    7  TYR7        0.1957
     17  OH        41.4350   45.7650   32.9710 O.3     7  TYR7       -0.2866
     18  N         35.6300   47.8190   32.3700 N.am    8  SER8       -0.1950
     19  CA        35.8470   48.6580   31.1970 C.3     8  SER8        0.1924
     20  C         37.2930   48.6430   30.7280 C.2     8  SER8        0.2314
     21  O         37.5980   49.1290   29.6330 O.2     8  SER8       -0.2863
     22  CB        35.4820   50.1000   31.5070 C.3     8  SER8        0.2116
     23  OG        36.5860   50.7310   32.1310 O.3     8  SER8       -0.2180
     24  N         40.5310   52.3560   37.0700 N.3    12  ASP12      -0.1225
     25  CA        39.6400   52.0900   38.1890 C.3    12  ASP12       0.1805
     26  C         39.0370   50.7040   38.2610 C.2    12  ASP12       0.2598
     27  O         39.0530   50.0810   39.3280 O.2    12  ASP12      -0.2718
     28  CB        38.5490   53.1480   38.2310 C.3    12  ASP12       0.1424
     29  CG        39.0810   54.4740   38.6860 C.2    12  ASP12       0.3668
     30  OD1       40.2830   54.5210   39.0360 O.co2  12  ASP12      -0.2456
     31  OD2       38.3230   55.4640   38.7020 O.co2  12  ASP12      -0.2456
     32  N         38.4940   50.2040   37.1570 N.am   13  THR13      -0.1953
     33  CA        37.9190   48.8710   37.2010 C.3    13  THR13       0.1897
     34  C         39.0500   47.8530   37.3050 C.2    13  THR13       0.2313
     35  O         38.8320   46.7060   37.6990 O.2    13  THR13      -0.2863
     36  CB        37.0370   48.5960   35.9700 C.3    13  THR13       0.1794
     37  OG1       37.6860   49.0850   34.7900 O.3    13  THR13      -0.2208
     38  CG2       35.6890   49.2980   36.1360 C.3    13  THR13       0.0378
     39  N         33.6750   41.3150   32.6740 N.3    31  PHE31      -0.1227
     40  CA        32.7810   41.4380   31.5350 C.3    31  PHE31       0.1736
     41  C         32.9870   42.8090   30.9420 C.2    31  PHE31       0.2596
     42  O         32.9070   43.8160   31.6410 O.2    31  PHE31      -0.2718
     43  CB        31.3130   41.2840   31.9430 C.3    31  PHE31       0.0547
     44  CG        30.3430   41.5990   30.8270 C.ar   31  PHE31      -0.0202
     45  CD1       30.3480   40.8530   29.6500 C.ar   31  PHE31      -0.0042
     46  CD2       29.4460   42.6560   30.9420 C.ar   31  PHE31      -0.0042
     47  CE1       29.4760   41.1550   28.6010 C.ar   31  PHE31      -0.0003
     48  CE2       28.5670   42.9680   29.8980 C.ar   31  PHE31      -0.0003
     49  CZ        28.5860   42.2160   28.7290 C.ar   31  PHE31      -0.0000
     50  N         33.2770   42.8410   29.6510 N.am   32  THR32      -0.1939
     51  CA        33.4800   44.0950   28.9520 C.3    32  THR32       0.2028
     52  C         32.5130   44.0880   27.7850 C.2    32  THR32       0.2642
     53  O         32.4680   43.1270   27.0100 O.2    32  THR32      -0.2714
     54  CB        34.9100   44.2150   28.4150 C.3    32  THR32       0.1808
     55  OG1       35.8380   44.0880   29.4980 O.3    32  THR32      -0.2208
     56  CG2       35.1100   45.5700   27.7450 C.3    32  THR32       0.0379
     57  N         31.7260   45.1480   27.6760 N.am   33  ALA33      -0.1977
     58  CA        30.7550   45.2520   26.6060 C.3    33  ALA33       0.1597
     59  C         31.1580   46.3220   25.6160 C.2    33  ALA33       0.2287
     60  O         31.5730   47.4110   26.0030 O.2    33  ALA33      -0.2864
     61  CB        29.3810   45.5770   27.1840 C.3    33  ALA33       0.0319
     62  N         29.8590   48.8770   23.4270 N.3    35  ILE35      -0.1245
     63  CA        28.6320   49.6140   23.1750 C.3    35  ILE35       0.1561
     64  C         29.0140   50.9080   22.4710 C.2    35  ILE35       0.2260
     65  O         28.3130   51.9210   22.5590 O.2    35  ILE35      -0.2867
     66  CB        27.8470   49.9210   24.4880 C.3    35  ILE35       0.0252
     67  CG1       28.7470   50.6360   25.4980 C.3    35  ILE35       0.0019
     68  CG2       27.2710   48.6390   25.0490 C.3    35  ILE35       0.0019
     69  CD1       27.9890   51.2140   26.7060 C.3    35  ILE35       0.0001
     70  N         32.2640   52.5630   22.7450 N.3    37  GLN37      -0.1245
     71  CA        33.1960   53.4680   23.4230 C.3    37  GLN37       0.1566
     72  C         34.3820   53.7600   22.5130 C.2    37  GLN37       0.2260
     73  O         35.2200   54.6120   22.8270 O.2    37  GLN37      -0.2867
     74  CB        33.7460   52.8600   24.7220 C.3    37  GLN37       0.0367
     75  CG        32.7840   51.9880   25.4790 C.3    37  GLN37       0.0905
     76  CD        32.8150   50.5550   25.0000 C.2    37  GLN37       0.2608
     77  OE1       33.6180   49.7390   25.4780 O.2    37  GLN37      -0.2717
     78  NE2       31.9420   50.2340   24.0520 N.am   37  GLN37      -0.0878
     79  N         24.2930   58.1300   28.7900 N.3    88  THR88      -0.1218
     80  CA        24.8450   57.1730   29.7420 C.3    88  THR88       0.1862
     81  C         23.7330   56.3570   30.4010 C.2    88  THR88       0.2287
     82  O         23.8440   55.1440   30.5510 O.2    88  THR88      -0.2866
     83  CB        25.6900   57.8960   30.8210 C.3    88  THR88       0.1770
     84  OG1       26.8600   58.4570   30.2090 O.3    88  THR88      -0.2211
     85  CG2       26.1170   56.9270   31.9200 C.3    88  THR88       0.0375
     86  N         23.5110   51.7100   31.0610 N.3    92  ARG92      -0.1245
     87  CA        23.6550   50.9200   32.2830 C.3    92  ARG92       0.1563
     88  C         22.7420   49.6970   32.3910 C.2    92  ARG92       0.2260
     89  O         23.2000   48.6110   32.7340 O.2    92  ARG92      -0.2867
     90  CB        23.4680   51.8140   33.5110 C.3    92  ARG92       0.0307
     91  CG        24.3630   53.0510   33.5140 C.3    92  ARG92       0.0489
     92  CD        25.7530   52.7350   32.9970 C.3    92  ARG92       0.2205
     93  NE        26.7010   53.7890   33.3230 N.pl3  92  ARG92      -0.0865
     94  CZ        27.9370   53.8580   32.8400 C.cat  92  ARG92       0.5346
     95  NH1       28.3770   52.9330   32.0010 N.pl3  92  ARG92       0.1354
     96  NH2       28.7320   54.8560   33.1990 N.pl3  92  ARG92       0.1354
     97  N         24.0940   46.7710   30.3780 N.3    95  ILE95      -0.1245
     98  CA        25.2480   46.1820   31.0300 C.3    95  ILE95       0.1561
     99  C         24.8250   45.3250   32.2180 C.2    95  ILE95       0.2260
    100  O         25.1670   44.1490   32.2890 O.2    95  ILE95      -0.2867
    101  CB        26.2180   47.2810   31.4670 C.3    95  ILE95       0.0252
    102  CG1       26.7750   47.9710   30.2130 C.3    95  ILE95       0.0019
    103  CG2       27.3440   46.6870   32.3100 C.3    95  ILE95       0.0019
    104  CD1       27.4760   49.2700   30.4810 C.3    95  ILE95       0.0001
    105  N         30.3450   46.6020   40.1320 N.3   113  HIS113     -0.1226
    106  CA        30.4940   47.6820   39.1640 C.3   113  HIS113      0.1752
    107  C         31.3600   48.7750   39.7850 C.2   113  HIS113      0.2597
    108  O         31.4930   48.8530   41.0100 O.2   113  HIS113     -0.2718
    109  CB        29.1250   48.2600   38.7950 C.3   113  HIS113      0.0759
    110  CG        28.4300   48.9270   39.9390 C.ar  113  HIS113      0.0818
    111  ND1       28.8850   50.1000   40.5020 N.ar  113  HIS113     -0.2268
    112  CD2       27.3400   48.5650   40.6560 C.ar  113  HIS113      0.1154
    113  CE1       28.1060   50.4320   41.5150 C.ar  113  HIS113      0.1986
    114  NE2       27.1610   49.5170   41.6300 N.ar  113  HIS113     -0.2212
    115  N         31.9340   49.6240   38.9430 N.am  114  GLY114     -0.1942
    116  CA        32.7870   50.6830   39.4440 C.3   114  GLY114      0.2014
    117  C         32.1870   52.0770   39.4460 C.2   114  GLY114      0.2638
    118  O         32.9030   53.0530   39.2450 O.2   114  GLY114     -0.2714
    119  N         30.8800   52.1860   39.6630 N.am  115  ALA115     -0.1977
    120  CA        30.2470   53.5030   39.7070 C.3   115  ALA115      0.1597
    121  C         30.4760   54.0180   41.1300 C.2   115  ALA115      0.2287
    122  O         30.5250   53.2210   42.0610 O.2   115  ALA115     -0.2864
    123  CB        28.7560   53.3780   39.4120 C.3   115  ALA115      0.0319
    124  N         24.7120   56.2600   38.3140 N.3   121  ASP121     -0.1239
    125  CA        25.0470   54.9240   37.8110 C.3   121  ASP121      0.1674
    126  C         24.8980   53.8050   38.8190 C.2   121  ASP121      0.2266
    127  O         24.4680   52.7070   38.4710 O.2   121  ASP121     -0.2867
    128  CB        26.4740   54.8740   37.2560 C.3   121  ASP121      0.1410
    129  CG        26.6190   55.6080   35.9370 C.2   121  ASP121      0.3668
    130  OD1       25.6240   55.7030   35.1760 O.co2 121  ASP121     -0.2456
    131  OD2       27.7390   56.0830   35.6570 O.co2 121  ASP121     -0.2456
    132  N         22.6700   50.4770   37.9410 N.3   125  PHE125     -0.1241
    133  CA        23.1580   49.0960   37.9200 C.3   125  PHE125      0.1605
    134  C         22.3960   48.2470   38.9210 C.2   125  PHE125      0.2264
    135  O         21.9600   47.1430   38.6190 O.2   125  PHE125     -0.2867
    136  CB        24.6480   49.0100   38.2930 C.3   125  PHE125      0.0534
    137  CG        25.5880   49.3650   37.1780 C.ar  125  PHE125     -0.0203
    138  CD1       26.3270   50.5360   37.2310 C.ar  125  PHE125     -0.0042
    139  CD2       25.7620   48.5080   36.0930 C.ar  125  PHE125     -0.0042
    140  CE1       27.2300   50.8580   36.2210 C.ar  125  PHE125     -0.0003
    141  CE2       26.6620   48.8180   35.0770 C.ar  125  PHE125     -0.0003
    142  CZ        27.3980   50.0010   35.1460 C.ar  125  PHE125     -0.0000
    143  N         36.1720   63.7070   33.9080 N.3   168  SER168     -0.1202
    144  CA        35.9060   62.2990   33.6630 C.3   168  SER168      0.2020
    145  C         34.9510   62.1490   32.4810 C.2   168  SER168      0.2619
    146  O         34.0380   62.9570   32.3110 O.2   168  SER168     -0.2717
    147  CB        35.2800   61.6830   34.9140 C.3   168  SER168      0.2103
    148  OG        34.9680   60.3140   34.7120 O.3   168  SER168     -0.2182
    149  N         35.1640   61.1300   31.6550 N.am  169  MET169     -0.1965
    150  CA        34.2810   60.9200   30.5200 C.3   169  MET169      0.1736
    151  C         33.7070   59.5200   30.4500 C.2   169  MET169      0.2616
    152  O         34.2490   58.5700   31.0190 O.2   169  MET169     -0.2715
    153  CB        34.9780   61.2750   29.1900 C.3   169  MET169      0.0427
    154  CG        36.4840   61.3090   29.2130 C.3   169  MET169      0.0599
    155  SD        37.1900   61.9630   27.6550 S.3   169  MET169     -0.1393
    156  CE        36.8840   60.5650   26.5370 C.3   169  MET169      0.0692
    157  N         32.5720   59.4090   29.7700 N.am  170  ASP170     -0.1971
    158  CA        31.9060   58.1320   29.5890 C.3   170  ASP170      0.1709
    159  C         31.3900   58.1930   28.1620 C.2   170  ASP170      0.2293
    160  O         30.5350   59.0250   27.8250 O.2   170  ASP170     -0.2864
    161  CB        30.7450   57.9860   30.5700 C.3   170  ASP170      0.1436
    162  CG        29.9540   56.7260   30.3430 C.2   170  ASP170      0.3671
    163  OD1       28.7180   56.7870   30.4780 O.co2 170  ASP170     -0.2456
    164  OD2       30.5490   55.6700   30.0330 O.co2 170  ASP170     -0.2456
@<TRIPOS>BOND
     1    64    65    2
     2    64    63    1
     3    72    73    2
     4    72    71    1
     5    70    71    1
     6    63    62    1
     7    63    66    1
     8    71    74    1
     9    78    76   am
    10    66    68    1
    11    66    67    1
    12    74    75    1
    13    76    77    2
    14    76    75    1
    15    67    69    1
    16    59    60    2
    17    59    58    1
    18   156   155    1
    19    58    61    1
    20    58    57    1
    21    53    52    2
    22   155   154    1
    23    57    52   am
    24    56    54    1
    25    52    51    1
    26   160   159    2
    27   159   158    1
    28    54    51    1
    29    54    55    1
    30    47    49   ar
    31    47    45   ar
    32    49    48   ar
    33    79    80    1
    34    51    50    1
    35   153   154    1
    36   153   150    1
    37   158   157    1
    38   158   161    1
    39    21    20    2
    40    45    44   ar
    41    50    41   am
    42    80    81    1
    43    80    83    1
    44   157   151   am
    45    48    46   ar
    46   164   162   ar
    47    84    83    1
    48   102   104    1
    49   102   101    1
    50   162   163   ar
    51   162   161    1
    52    97    98    1
    53    81    82    2
    54   151   150    1
    55   151   152    2
    56   150   149    1
    57    20    19    1
    58    83    85    1
    59    44    46   ar
    60    44    43    1
    61    41    40    1
    62    41    42    2
    63    98   101    1
    64    98    99    1
    65    86    87    1
    66     9     8    2
    67    19    22    1
    68    19    18    1
    69   101   103    1
    70    22    23    1
    71    40    43    1
    72    40    39    1
    73   149   145   am
    74    95    94    1
    75    15    13   ar
    76    15    16   ar
    77    99   100    2
    78    13    11   ar
    79     8    18   am
    80     8     7    1
    81    87    88    1
    82    87    90    1
    83   146   145    2
    84    88    89    2
    85   145   144    1
    86    94    96    1
    87    94    93    2
    88    17    16    1
    89    92    93    1
    90    92    91    1
    91    16    14   ar
    92    11    10    1
    93    11    12   ar
    94    90    91    1
    95     7    10    1
    96     7     6    1
    97   144   143    1
    98   144   147    1
    99     6     3   am
   100    14    12   ar
   101     3     2    1
   102     3     4    2
   103   148   147    1
   104    37    36    1
   105     2     5    1
   106     2     1    1
   107   141   142   ar
   108   141   139   ar
   109   142   140   ar
   110   130   129   ar
   111   131   129   ar
   112   129   128    1
   113    36    38    1
   114    36    33    1
   115   139   137   ar
   116   140   138   ar
   117    24    25    1
   118    32    33    1
   119    32    26   am
   120   137   138   ar
   121   137   136    1
   122    33    34    1
   123   128   125    1
   124    34    35    2
   125   125   124    1
   126   125   126    1
   127   133   132    1
   128   133   136    1
   129   133   134    1
   130    25    28    1
   131    25    26    1
   132    28    29    1
   133    26    27    2
   134   127   126    2
   135   135   134    2
   136    29    31   ar
   137    29    30   ar
   138   109   106    1
   139   109   110    1
   140   115   116    1
   141   115   107   am
   142   106   107    1
   143   106   105    1
   144   118   117    2
   145   123   120    1
   146   116   117    1
   147   117   119   am
   148   119   120    1
   149   120   121    1
   150   107   108    2
   151   110   111   ar
   152   110   112   ar
   153   111   113   ar
   154   112   114   ar
   155   121   122    2
   156   113   114   ar
