@<TRIPOS>MOLECULE
tmp/1j2cA00.pdb
 180 168 0 0 0
SMALL
GASTEIGER

@<TRIPOS>ATOM
      1  N        -87.2910   -1.7820  -76.5720 N.3     8  SER8       -0.1217
      2  CA       -87.2730   -2.2470  -77.9580 C.3     8  SER8        0.1889
      3  C        -85.9780   -2.9900  -78.2840 C.2     8  SER8        0.2288
      4  O        -85.9900   -3.9560  -79.0400 O.2     8  SER8       -0.2866
      5  CB       -87.4610   -1.0750  -78.9300 C.3     8  SER8        0.2089
      6  OG       -86.4100   -0.1340  -78.8140 O.3     8  SER8       -0.2183
      7  N        -85.7690   -7.0820  -79.0300 N.3    12  LYS12      -0.1245
      8  CA       -85.1670   -7.5660  -80.2660 C.3    12  LYS12       0.1561
      9  C        -84.0630   -8.5930  -79.9780 C.2    12  LYS12       0.2260
     10  O        -84.0060   -9.6540  -80.6060 O.2    12  LYS12      -0.2867
     11  CB       -84.5960   -6.3950  -81.0710 C.3    12  LYS12       0.0271
     12  CG       -84.0180   -6.7920  -82.4180 C.3    12  LYS12       0.0035
     13  CD       -83.3670   -5.6000  -83.1020 C.3    12  LYS12       0.0206
     14  CE       -82.7050   -6.0110  -84.4010 C.3    12  LYS12       0.1093
     15  NZ       -83.6800   -6.6770  -85.3060 N.3    12  LYS12      -0.1314
     16  N        -85.6670  -11.9460  -78.5170 N.3    15  THR15      -0.1218
     17  CA       -86.4280  -12.8190  -79.3990 C.3    15  THR15       0.1862
     18  C        -85.7530  -13.2140  -80.7100 C.2    15  THR15       0.2287
     19  O        -86.3150  -13.9850  -81.4860 O.2    15  THR15      -0.2866
     20  CB       -87.7890  -12.1680  -79.7440 C.3    15  THR15       0.1770
     21  OG1      -87.5650  -10.9550  -80.4760 O.3    15  THR15      -0.2211
     22  CG2      -88.5600  -11.8380  -78.4680 C.3    15  THR15       0.0375
     23  N        -86.9490  -16.3310  -82.9400 N.3    19  HIS19      -0.1241
     24  CA       -87.4830  -15.8000  -84.1940 C.3    19  HIS19       0.1621
     25  C        -86.9570  -16.6230  -85.3670 C.2    19  HIS19       0.2264
     26  O        -87.6990  -16.9540  -86.2940 O.2    19  HIS19      -0.2867
     27  CB       -87.0880  -14.3320  -84.3930 C.3    19  HIS19       0.0745
     28  CG       -87.5780  -13.7520  -85.6860 C.ar   19  HIS19       0.0817
     29  ND1      -86.9920  -14.0370  -86.9020 N.ar   19  HIS19      -0.2268
     30  CD2      -88.6400  -12.9580  -85.9600 C.ar   19  HIS19       0.1154
     31  CE1      -87.6740  -13.4460  -87.8680 C.ar   19  HIS19       0.1986
     32  NE2      -88.6790  -12.7860  -87.3230 N.ar   19  HIS19      -0.2212
     33  N        -88.8070  -19.7180  -85.3570 N.3    22  ALA22      -0.1231
     34  CA       -90.1830  -19.5100  -85.8140 C.3    22  ALA22       0.1694
     35  C        -90.2270  -19.2850  -87.3190 C.2    22  ALA22       0.2591
     36  O        -91.1010  -19.7970  -88.0150 O.2    22  ALA22      -0.2718
     37  CB       -90.8050  -18.3220  -85.0860 C.3    22  ALA22       0.0304
     38  N        -89.2670  -18.5200  -87.8160 N.am   23  GLU23      -0.1979
     39  CA       -89.1850  -18.2210  -89.2370 C.3    23  GLU23       0.1602
     40  C        -88.9140  -19.4720  -90.0800 C.2    23  GLU23       0.2287
     41  O        -89.3710  -19.5710  -91.2190 O.2    23  GLU23      -0.2864
     42  CB       -88.0810  -17.1910  -89.4730 C.3    23  GLU23       0.0415
     43  CG       -87.8660  -16.8230  -90.9270 C.3    23  GLU23       0.1163
     44  CD       -86.6540  -15.9300  -91.1250 C.2    23  GLU23       0.3649
     45  OE1      -86.3230  -15.6300  -92.2960 O.co2  23  GLU23      -0.2457
     46  OE2      -86.0340  -15.5320  -90.1080 O.co2  23  GLU23      -0.2457
     47  N        -94.1970  -22.3910  -92.0570 N.3    28  MET28      -0.1245
     48  CA       -93.7340  -21.1210  -92.6020 C.3    28  MET28       0.1570
     49  C        -92.7730  -21.3690  -93.7410 C.2    28  MET28       0.2261
     50  O        -92.8480  -20.7270  -94.7850 O.2    28  MET28      -0.2867
     51  CB       -93.0250  -20.2950  -91.5310 C.3    28  MET28       0.0387
     52  CG       -93.9480  -19.4160  -90.7370 C.3    28  MET28       0.0595
     53  SD       -94.9770  -18.4500  -91.8560 S.3    28  MET28      -0.1393
     54  CE       -96.5310  -19.3590  -91.7050 C.3    28  MET28       0.0692
     55  N        -93.1300  -19.8780  -97.3400 N.3    32  GLN32      -0.1245
     56  CA       -92.0410  -19.0790  -97.8940 C.3    32  GLN32       0.1566
     57  C        -91.6460  -19.5370  -99.2940 C.2    32  GLN32       0.2260
     58  O        -91.3890  -18.7130 -100.1680 O.2    32  GLN32      -0.2867
     59  CB       -90.8090  -19.1520  -96.9880 C.3    32  GLN32       0.0367
     60  CG       -90.3770  -17.8250  -96.3800 C.3    32  GLN32       0.0905
     61  CD       -91.0470  -17.5370  -95.0470 C.2    32  GLN32       0.2608
     62  OE1      -90.6210  -16.6460  -94.3050 O.2    32  GLN32      -0.2717
     63  NE2      -92.0970  -18.2870  -94.7340 N.am   32  GLN32      -0.0878
     64  N        -96.4500   -6.5240  -79.7050 N.3   128  TYR128     -0.1227
     65  CA       -95.1460   -6.4130  -80.3540 C.3   128  TYR128      0.1736
     66  C        -94.9010   -7.6010  -81.2840 C.2   128  TYR128      0.2596
     67  O        -94.6150   -7.4410  -82.4680 O.2   128  TYR128     -0.2718
     68  CB       -94.0510   -6.3730  -79.2840 C.3   128  TYR128      0.0548
     69  CG       -92.6700   -6.7120  -79.7840 C.ar  128  TYR128     -0.0200
     70  CD1      -91.9130   -5.7840  -80.5060 C.ar  128  TYR128     -0.0009
     71  CD2      -92.1030   -7.9580  -79.5120 C.ar  128  TYR128     -0.0009
     72  CE1      -90.6140   -6.0910  -80.9390 C.ar  128  TYR128      0.0417
     73  CE2      -90.8170   -8.2770  -79.9370 C.ar  128  TYR128      0.0417
     74  CZ       -90.0770   -7.3430  -80.6470 C.ar  128  TYR128      0.1957
     75  OH       -88.8090   -7.6700  -81.0640 O.3   128  TYR128     -0.2866
     76  N        -95.0260   -8.7940  -80.7200 N.am  129  THR129     -0.1939
     77  CA       -94.7930  -10.0260  -81.4440 C.3   129  THR129      0.2028
     78  C        -95.6120  -10.1780  -82.7220 C.2   129  THR129      0.2642
     79  O        -95.0550  -10.4570  -83.7780 O.2   129  THR129     -0.2714
     80  CB       -95.0210  -11.2330  -80.4950 C.3   129  THR129      0.1808
     81  OG1      -93.8940  -11.3500  -79.6170 O.3   129  THR129     -0.2208
     82  CG2      -95.2010  -12.5320  -81.2670 C.3   129  THR129      0.0379
     83  N        -96.9270  -10.0000  -82.6330 N.am  130  ARG130     -0.1977
     84  CA       -97.7800  -10.1370  -83.8090 C.3   130  ARG130      0.1597
     85  C        -97.7150   -8.9440  -84.7750 C.2   130  ARG130      0.2287
     86  O        -97.3800   -9.1010  -85.9470 O.2   130  ARG130     -0.2864
     87  CB       -99.2410  -10.3610  -83.3920 C.3   130  ARG130      0.0334
     88  CG       -99.5730  -11.7390  -82.8040 C.3   130  ARG130      0.0492
     89  CD       -99.1310  -12.9170  -83.6960 C.3   130  ARG130      0.2205
     90  NE       -99.4470  -12.7250  -85.1120 N.pl3 130  ARG130     -0.0865
     91  CZ       -99.0300  -13.5280  -86.0940 C.cat 130  ARG130      0.5346
     92  NH1      -98.2830  -14.5900  -85.8210 N.pl3 130  ARG130      0.1354
     93  NH2      -99.3340  -13.2560  -87.3620 N.pl3 130  ARG130      0.1354
     94  N        -95.6160   -6.2260  -85.1800 N.3   132  LEU132     -0.1231
     95  CA       -94.3690   -5.9260  -85.8750 C.3   132  LEU132      0.1693
     96  C        -94.0470   -7.0060  -86.8990 C.2   132  LEU132      0.2592
     97  O        -93.5230   -6.7090  -87.9690 O.2   132  LEU132     -0.2718
     98  CB       -93.2080   -5.7380  -84.8900 C.3   132  LEU132      0.0284
     99  CG       -93.2130   -4.4760  -84.0040 C.3   132  LEU132      0.0019
    100  CD1      -91.8200   -3.8790  -83.9740 C.3   132  LEU132      0.0001
    101  CD2      -94.1900   -3.4280  -84.5360 C.3   132  LEU132      0.0001
    102  N        -94.3630   -8.2570  -86.5780 N.am  133  GLY133     -0.1957
    103  CA       -94.1240   -9.3280  -87.5230 C.3   133  GLY133      0.1869
    104  C        -94.9610   -9.1160  -88.7730 C.2   133  GLY133      0.2309
    105  O        -94.4860   -9.3070  -89.9030 O.2   133  GLY133     -0.2863
    106  N        -93.5270   -6.6210  -90.9410 N.3   136  SER136     -0.1202
    107  CA       -92.2390   -6.9900  -91.5010 C.3   136  SER136      0.2020
    108  C        -92.3510   -8.0180  -92.6270 C.2   136  SER136      0.2619
    109  O        -91.8510   -7.7990  -93.7290 O.2   136  SER136     -0.2717
    110  CB       -91.3390   -7.5200  -90.3920 C.3   136  SER136      0.2103
    111  OG       -91.2240   -6.5610  -89.3610 O.3   136  SER136     -0.2182
    112  N        -92.9980   -9.1420  -92.3500 N.am  137  GLY137     -0.1956
    113  CA       -93.1400  -10.1620  -93.3710 C.3   137  GLY137      0.1869
    114  C        -94.5050  -10.1050  -94.0190 C.2   137  GLY137      0.2309
    115  O        -94.8520  -10.9510  -94.8380 O.2   137  GLY137     -0.2863
    116  N        -94.5130   -9.7080  -97.7630 N.3   140  VAL140     -0.1231
    117  CA       -93.8440  -10.8620  -98.3450 C.3   140  VAL140      0.1692
    118  C        -94.8000  -12.0470  -98.4560 C.2   140  VAL140      0.2591
    119  O        -94.9930  -12.5900  -99.5430 O.2   140  VAL140     -0.2718
    120  CB       -92.6110  -11.2560  -97.5130 C.3   140  VAL140      0.0266
    121  CG1      -92.0210  -12.5600  -98.0220 C.3   140  VAL140      0.0020
    122  CG2      -91.5790  -10.1470  -97.5930 C.3   140  VAL140      0.0020
    123  N        -95.4070  -12.4420  -97.3420 N.am  141  LEU141     -0.1980
    124  CA       -96.3420  -13.5570  -97.3690 C.3   141  LEU141      0.1596
    125  C        -97.4930  -13.2430  -98.3160 C.2   141  LEU141      0.2287
    126  O        -98.0030  -14.1230  -99.0110 O.2   141  LEU141     -0.2864
    127  CB       -96.8880  -13.8370  -95.9690 C.3   141  LEU141      0.0297
    128  CG       -95.8800  -14.2510  -94.8910 C.3   141  LEU141      0.0022
    129  CD1      -96.6320  -14.5330  -93.5930 C.3   141  LEU141      0.0001
    130  CD2      -95.0960  -15.4930  -95.3410 C.3   141  LEU141      0.0001
    131  N        -92.9770    1.2390  -87.8630 N.3   173  LYS173     -0.1245
    132  CA       -92.2810    0.2980  -86.9940 C.3   173  LYS173      0.1561
    133  C        -91.3120    1.1030  -86.1190 C.2   173  LYS173      0.2260
    134  O        -91.2050    0.8740  -84.9140 O.2   173  LYS173     -0.2867
    135  CB       -91.5190   -0.7200  -87.8530 C.3   173  LYS173      0.0271
    136  CG       -91.8600   -2.1800  -87.5740 C.3   173  LYS173      0.0035
    137  CD       -91.9730   -3.0120  -88.8580 C.3   173  LYS173      0.0206
    138  CE       -90.7310   -2.9360  -89.7660 C.3   173  LYS173      0.1093
    139  NZ       -89.5000   -3.5500  -89.1710 N.3   173  LYS173     -0.1314
    140  N        -91.4900    1.3220  -82.1140 N.3   177  ARG177     -0.1245
    141  CA       -90.3780    0.9500  -81.2400 C.3   177  ARG177      0.1563
    142  C        -90.0590    2.0770  -80.2790 C.2   177  ARG177      0.2260
    143  O        -89.8490    1.8490  -79.0910 O.2   177  ARG177     -0.2867
    144  CB       -89.1160    0.6170  -82.0400 C.3   177  ARG177      0.0307
    145  CG       -89.2030   -0.6220  -82.9000 C.3   177  ARG177      0.0489
    146  CD       -87.8170   -1.0150  -83.3970 C.3   177  ARG177      0.2205
    147  NE       -87.8770   -2.1060  -84.3620 N.pl3 177  ARG177     -0.0865
    148  CZ       -88.1290   -1.9490  -85.6590 C.cat 177  ARG177      0.5346
    149  NH1      -88.3380   -0.7330  -86.1580 N.pl3 177  ARG177      0.1354
    150  NH2      -88.1880   -3.0120  -86.4590 N.pl3 177  ARG177      0.1354
    151  N        -93.6980  -16.0870  -79.2080 N.3   201  PHE201     -0.1241
    152  CA       -93.0980  -16.7270  -80.3710 C.3   201  PHE201      0.1605
    153  C        -93.3100  -18.2280  -80.3150 C.2   201  PHE201      0.2264
    154  O        -93.6190  -18.8530  -81.3280 O.2   201  PHE201     -0.2867
    155  CB       -91.6060  -16.4260  -80.4570 C.3   201  PHE201      0.0534
    156  CG       -91.2880  -15.1530  -81.1870 C.ar  201  PHE201     -0.0203
    157  CD1      -91.2040  -13.9430  -80.5050 C.ar  201  PHE201     -0.0042
    158  CD2      -91.0830  -15.1640  -82.5620 C.ar  201  PHE201     -0.0042
    159  CE1      -90.9200  -12.7620  -81.1840 C.ar  201  PHE201     -0.0003
    160  CE2      -90.8010  -13.9930  -83.2480 C.ar  201  PHE201     -0.0003
    161  CZ       -90.7190  -12.7850  -82.5530 C.ar  201  PHE201     -0.0000
    162  N        -96.6750  -19.2440  -81.2470 N.3   204  ASN204     -0.1240
    163  CA       -96.8360  -19.1700  -82.6880 C.3   204  ASN204      0.1653
    164  C        -96.2260  -20.4000  -83.3260 C.2   204  ASN204      0.2266
    165  O        -96.7730  -20.9500  -84.2750 O.2   204  ASN204     -0.2867
    166  CB       -96.1640  -17.9110  -83.2330 C.3   204  ASN204      0.1155
    167  CG       -97.0500  -16.6900  -83.1210 C.2   204  ASN204      0.2627
    168  OD1      -97.9220  -16.4660  -83.9580 O.2   204  ASN204     -0.2716
    169  ND2      -96.8460  -15.9040  -82.0710 N.am  204  ASN204     -0.0877
    170  N        -98.1060  -23.4240  -85.6010 N.3   208  PHE208     -0.1241
    171  CA       -97.6410  -23.8810  -86.9060 C.3   208  PHE208      0.1605
    172  C        -97.3790  -25.3830  -86.9520 C.2   208  PHE208      0.2264
    173  O        -97.7790  -26.0570  -87.9030 O.2   208  PHE208     -0.2867
    174  CB       -96.3790  -23.1150  -87.3210 C.3   208  PHE208      0.0534
    175  CG       -96.6060  -21.6400  -87.5230 C.ar  208  PHE208     -0.0203
    176  CD1      -97.7350  -21.1830  -88.2070 C.ar  208  PHE208     -0.0042
    177  CD2      -95.7080  -20.7080  -87.0160 C.ar  208  PHE208     -0.0042
    178  CE1      -97.9700  -19.8200  -88.3780 C.ar  208  PHE208     -0.0003
    179  CE2      -95.9330  -19.3340  -87.1830 C.ar  208  PHE208     -0.0003
    180  CZ       -97.0670  -18.8930  -87.8630 C.ar  208  PHE208     -0.0000
@<TRIPOS>BOND
     1    58    57    2
     2   119   118    2
     3    57    56    1
     4   126   125    2
     5   118   117    1
     6   118   123   am
     7   117   116    1
     8   117   120    1
     9   125   124    1
    10   121   120    1
    11    56    55    1
    12    56    59    1
    13   122   120    1
    14   124   123    1
    15   124   127    1
    16    59    60    1
    17    60    61    1
    18   127   128    1
    19   130   128    1
    20    61    63   am
    21    61    62    2
    22   128   129    1
    23   115   114    2
    24    50    49    2
    25   114   113    1
    26    49    48    1
    27   109   108    2
    28   113   112    1
    29   108   112   am
    30   108   107    1
    31    48    47    1
    32    48    51    1
    33    45    44   ar
    34    53    54    1
    35    53    52    1
    36    51    52    1
    37   107   106    1
    38   107   110    1
    39    41    40    2
    40    44    43    1
    41    44    46   ar
    42    43    42    1
    43   110   111    1
    44    40    39    1
    45   105   104    2
    46   138   139    1
    47   138   137    1
    48    42    39    1
    49    39    38    1
    50   137   136    1
    51   104   103    1
    52   178   176   ar
    53   178   180   ar
    54   176   175   ar
    55    36    35    2
    56    97    96    2
    57   173   172    2
    58    31    32   ar
    59    31    29   ar
    60   180   179   ar
    61   131   132    1
    62   135   136    1
    63   135   132    1
    64    38    35   am
    65   103   102    1
    66   175   174    1
    67   175   177   ar
    68    93    91    1
    69    32    30   ar
    70   174   171    1
    71    35    34    1
    72   179   177   ar
    73   132   133    1
    74   172   171    1
    75   171   170    1
    76    29    28   ar
    77    96   102   am
    78    96    95    1
    79   150   148    1
    80    26    25    2
    81   149   148    1
    82   133   134    2
    83    91    92    1
    84    91    90    2
    85    30    28   ar
    86    86    85    2
    87    95    94    1
    88    95    98    1
    89    34    33    1
    90    34    37    1
    91    28    27    1
    92   148   147    2
    93    25    24    1
    94    15    14    1
    95    90    89    1
    96    98    99    1
    97    85    84    1
    98   101    99    1
    99    14    13    1
   100    27    24    1
   101   147   146    1
   102   165   164    2
   103    24    23    1
   104    99   100    1
   105   168   167    2
   106    84    87    1
   107    84    83    1
   108    79    78    2
   109    89    88    1
   110   146   145    1
   111    87    88    1
   112   164   163    1
   113   160   158   ar
   114   160   161   ar
   115   166   167    1
   116   166   163    1
   117   167   169   am
   118    13    12    1
   119   145   144    1
   120    78    83   am
   121    78    77    1
   122   163   162    1
   123   158   156   ar
   124   161   159   ar
   125    67    66    2
   126    12    11    1
   127   140   141    1
   128   144   141    1
   129    19    18    2
   130    77    76    1
   131    77    80    1
   132   154   153    2
   133    66    76   am
   134    66    65    1
   135    82    80    1
   136   141   142    1
   137   156   157   ar
   138   156   155    1
   139   159   157   ar
   140    11     8    1
   141    75    74    1
   142    72    74   ar
   143    72    70   ar
   144    18    17    1
   145    74    73   ar
   146    10     9    2
   147    70    69   ar
   148    80    81    1
   149    21    20    1
   150   155   152    1
   151   152   153    1
   152   152   151    1
   153    65    64    1
   154    65    68    1
   155   142   143    2
   156     8     9    1
   157     8     7    1
   158    73    71   ar
   159    69    71   ar
   160    69    68    1
   161    20    17    1
   162    20    22    1
   163    17    16    1
   164     4     3    2
   165     5     6    1
   166     5     2    1
   167     3     2    1
   168     2     1    1
