@<TRIPOS>MOLECULE
tmp/1j2qN00.pdb
 140 131 0 0 0
SMALL
GASTEIGER

@<TRIPOS>ATOM
      1  N        138.7340    2.3290  109.5370 N.3     1  THR1       -0.1218
      2  CA       139.1010    2.5770  110.9550 C.3     1  THR1        0.1862
      3  C        139.3280    1.3150  111.7340 C.2     1  THR1        0.2287
      4  O        138.6400    0.3260  111.5520 O.2     1  THR1       -0.2866
      5  CB       138.0040    3.3640  111.7360 C.3     1  THR1        0.1770
      6  OG1      138.1210    4.7630  111.4480 O.3     1  THR1       -0.2211
      7  CG2      138.1740    3.1810  113.2810 C.3     1  THR1        0.0375
      8  N        143.2410    6.3290  108.4020 N.3    19  ARG19      -0.1231
      9  CA       142.3450    6.4260  107.2550 C.3    19  ARG19       0.1694
     10  C        140.9190    6.8920  107.5290 C.2    19  ARG19       0.2592
     11  O        140.3060    6.5270  108.5310 O.2    19  ARG19      -0.2718
     12  CB       142.3260    5.0950  106.4990 C.3    19  ARG19       0.0321
     13  CG       141.4250    5.1090  105.2660 C.3    19  ARG19       0.0489
     14  CD       141.6720    3.9100  104.3660 C.3    19  ARG19       0.2205
     15  NE       142.9710    3.9960  103.7060 N.pl3  19  ARG19      -0.0865
     16  CZ       143.4110    3.1270  102.8010 C.cat  19  ARG19       0.5346
     17  NH1      144.6030    3.2940  102.2560 N.pl3  19  ARG19       0.1354
     18  NH2      142.6670    2.0910  102.4450 N.pl3  19  ARG19       0.1354
     19  N        140.4090    7.7300  106.6320 N.am   20  ALA20      -0.1966
     20  CA       139.0470    8.2380  106.7450 C.3    20  ALA20       0.1728
     21  C        138.4510    7.9900  105.3870 C.2    20  ALA20       0.2617
     22  O        139.0320    8.3750  104.3680 O.2    20  ALA20      -0.2715
     23  CB       139.0360    9.7220  107.0590 C.3    20  ALA20       0.0334
     24  N        137.2960    7.3410  105.3730 N.am   21  THR21      -0.1937
     25  CA       136.6360    7.0060  104.1240 C.3    21  THR21       0.2028
     26  C        135.1620    7.3880  104.0440 C.2    21  THR21       0.2642
     27  O        134.4870    7.5720  105.0550 O.2    21  THR21      -0.2714
     28  CB       136.7100    5.4980  103.8830 C.3    21  THR21       0.1808
     29  OG1      136.1100    4.8260  105.0010 O.3    21  THR21      -0.2208
     30  CG2      138.1660    5.0390  103.7410 C.3    21  THR21       0.0379
     31  N        134.6890    7.4990  102.8090 N.am   22  MET22      -0.1976
     32  CA       133.3010    7.7860  102.5090 C.3    22  MET22       0.1605
     33  C        133.0800    6.8520  101.3480 C.2    22  MET22       0.2287
     34  O        133.3290    7.2070  100.1980 O.2    22  MET22      -0.2864
     35  CB       133.0970    9.2170  102.0390 C.3    22  MET22       0.0413
     36  CG       131.6210    9.6190  102.0000 C.3    22  MET22       0.0598
     37  SD       131.3500   11.0200  100.9020 S.3    22  MET22      -0.1393
     38  CE       132.5730   12.2750  101.5750 C.3    22  MET22       0.0692
     39  N        139.1070    9.5960  101.8290 N.3    27  ALA27      -0.1245
     40  CA       139.0490   11.0370  102.0320 C.3    27  ALA27       0.1562
     41  C        140.2770   11.5650  102.7680 C.2    27  ALA27       0.2260
     42  O        140.6910   12.7110  102.5680 O.2    27  ALA27      -0.2867
     43  CB       137.7710   11.4020  102.7840 C.3    27  ALA27       0.0290
     44  N        143.9030   11.1540  109.1410 N.3    31  ALA31      -0.1231
     45  CA       142.8920   11.5710  110.1020 C.3    31  ALA31       0.1694
     46  C        143.3720   11.3340  111.5250 C.2    31  ALA31       0.2592
     47  O        144.0750   10.3770  111.7940 O.2    31  ALA31      -0.2718
     48  CB       141.6030   10.8150  109.8580 C.3    31  ALA31       0.0304
     49  N        142.9980   12.2260  112.4330 N.am   32  LYS32      -0.1966
     50  CA       143.3840   12.0830  113.8300 C.3    32  LYS32       0.1728
     51  C        142.2670   11.2910  114.5070 C.2    32  LYS32       0.2616
     52  O        141.0850   11.5950  114.3360 O.2    32  LYS32      -0.2715
     53  CB       143.5350   13.4590  114.4890 C.3    32  LYS32       0.0311
     54  CG       143.8240   13.3990  115.9900 C.3    32  LYS32       0.0038
     55  CD       143.7710   14.7820  116.6480 C.3    32  LYS32       0.0206
     56  CE       143.9600   14.6680  118.1530 C.3    32  LYS32       0.1093
     57  NZ       143.9150   15.9830  118.8620 N.3    32  LYS32      -0.1314
     58  N        142.6320   10.2700  115.2680 N.am   33  LYS33      -0.1977
     59  CA       141.6200    9.4510  115.9150 C.3    33  LYS33       0.1596
     60  C        141.9970    9.1610  117.3380 C.2    33  LYS33       0.2287
     61  O        141.3640    8.3260  117.9890 O.2    33  LYS33      -0.2864
     62  CB       141.4350    8.1250  115.1750 C.3    33  LYS33       0.0298
     63  CG       141.2990    8.2670  113.6760 C.3    33  LYS33       0.0038
     64  CD       141.0570    6.9190  113.0210 C.3    33  LYS33       0.0206
     65  CE       141.0170    7.0450  111.5060 C.3    33  LYS33       0.1093
     66  NZ       140.7390    5.7190  110.8950 N.3    33  LYS33      -0.1314
     67  N        142.8110   11.2270  120.9510 N.3    35  TYR35      -0.1241
     68  CA       142.7640   12.5080  121.6770 C.3    35  TYR35       0.1605
     69  C        143.2330   12.4030  123.1170 C.2    35  TYR35       0.2264
     70  O        143.0620   11.3700  123.7670 O.2    35  TYR35      -0.2867
     71  CB       141.3310   13.0580  121.7110 C.3    35  TYR35       0.0534
     72  CG       140.7210   13.3650  120.3630 C.ar   35  TYR35      -0.0201
     73  CD1      140.8220   14.6400  119.7990 C.ar   35  TYR35      -0.0009
     74  CD2      140.0910   12.3660  119.6250 C.ar   35  TYR35      -0.0009
     75  CE1      140.3240   14.9110  118.5320 C.ar   35  TYR35       0.0417
     76  CE2      139.5910   12.6220  118.3590 C.ar   35  TYR35       0.0417
     77  CZ       139.7160   13.8980  117.8140 C.ar   35  TYR35       0.1957
     78  OH       139.2800   14.1260  116.5250 O.3    35  TYR35      -0.2866
     79  N        138.7240    7.3890  118.6750 N.3    45  THR45      -0.1203
     80  CA       137.3950    7.5310  118.1090 C.3    45  THR45       0.1994
     81  C        137.1580    6.7940  116.8000 C.2    45  THR45       0.2618
     82  O        137.8710    7.0010  115.7980 O.2    45  THR45      -0.2717
     83  CB       137.0590    9.0110  117.8340 C.3    45  THR45       0.1784
     84  OG1      137.9350    9.5220  116.8120 O.3    45  THR45      -0.2211
     85  CG2      137.2120    9.8400  119.0920 C.3    45  THR45       0.0376
     86  N        136.1400    5.9430  116.8010 N.am   46  ALA46      -0.1965
     87  CA       135.7560    5.2410  115.5800 C.3    46  ALA46       0.1728
     88  C        134.3020    5.6260  115.2580 C.2    46  ALA46       0.2617
     89  O        133.4820    5.8380  116.1640 O.2    46  ALA46      -0.2715
     90  CB       135.8770    3.7440  115.7670 C.3    46  ALA46       0.0334
     91  N        133.9820    5.7390  113.9780 N.am   47  GLY47      -0.1940
     92  CA       132.6250    6.0830  113.6150 C.3    47  GLY47       0.2014
     93  C        132.5140    7.2950  112.7080 C.2    47  GLY47       0.2640
     94  O        133.3480    7.5230  111.8310 O.2    47  GLY47      -0.2714
     95  N        131.4630    8.0790  112.9230 N.am   48  SER48      -0.1935
     96  CA       131.2400    9.2660  112.1330 C.3    48  SER48       0.2055
     97  C        132.2870   10.2900  112.5180 C.2    48  SER48       0.2642
     98  O        132.4370   10.6170  113.7040 O.2    48  SER48      -0.2714
     99  CB       129.8540    9.8240  112.4130 C.3    48  SER48       0.2130
    100  OG       129.6180   10.9520  111.5970 O.3    48  SER48      -0.2179
    101  N        133.0140   10.7950  111.5230 N.am   49  VAL49      -0.1977
    102  CA       134.0520   11.7830  111.7770 C.3    49  VAL49       0.1596
    103  C        133.4650   12.9900  112.4900 C.2    49  VAL49       0.2287
    104  O        133.9230   13.3530  113.5690 O.2    49  VAL49      -0.2864
    105  CB       134.7050   12.2370  110.4780 C.3    49  VAL49       0.0276
    106  CG1      135.6770   13.3710  110.7530 C.3    49  VAL49       0.0022
    107  CG2      135.4210   11.0830  109.8430 C.3    49  VAL49       0.0022
    108  N        132.2080   12.1130  116.0440 N.3    52  ALA52      -0.1231
    109  CA       133.3560   11.8640  116.9230 C.3    52  ALA52       0.1694
    110  C        134.0680   13.1660  117.2920 C.2    52  ALA52       0.2591
    111  O        134.3880   13.4140  118.4570 O.2    52  ALA52      -0.2718
    112  CB       134.3350   10.9260  116.2470 C.3    52  ALA52       0.0304
    113  N        134.3100   13.9960  116.2860 N.am   53  GLN53      -0.1979
    114  CA       134.9850   15.2470  116.5140 C.3    53  GLN53       0.1601
    115  C        134.1960   16.1300  117.4690 C.2    53  GLN53       0.2287
    116  O        134.7480   16.7280  118.3900 O.2    53  GLN53      -0.2864
    117  CB       135.2140   15.9550  115.1840 C.3    53  GLN53       0.0394
    118  CG       136.3280   15.3330  114.3650 C.3    53  GLN53       0.0908
    119  CD       136.5890   16.0690  113.0500 C.2    53  GLN53       0.2608
    120  OE1      137.4660   15.6780  112.2860 O.2    53  GLN53      -0.2717
    121  NE2      135.8310   17.1320  112.7840 N.am   53  GLN53      -0.0878
    122  N        126.6970    8.2480  115.9300 N.3    96  LEU96      -0.1245
    123  CA       127.3390    7.0400  115.4040 C.3    96  LEU96       0.1561
    124  C        128.8370    7.0190  115.6900 C.2    96  LEU96       0.2260
    125  O        129.6680    7.3390  114.8420 O.2    96  LEU96      -0.2867
    126  CB       127.0640    6.9040  113.9010 C.3    96  LEU96       0.0270
    127  CG       125.6500    6.4430  113.5110 C.3    96  LEU96       0.0019
    128  CD1      124.6590    6.5690  114.6810 C.3    96  LEU96       0.0001
    129  CD2      125.1750    7.2660  112.3470 C.3    96  LEU96       0.0001
    130  N        136.0700   -0.7470  111.8740 N.3   131  SER131     -0.1217
    131  CA       135.8240   -1.7030  110.8260 C.3   131  SER131      0.1889
    132  C        136.8970   -2.7950  110.7570 C.2   131  SER131      0.2288
    133  O        136.6680   -3.8510  110.1760 O.2   131  SER131     -0.2866
    134  CB       135.7370   -0.9690  109.4970 C.3   131  SER131      0.2089
    135  OG       136.8140   -0.0650  109.3590 O.3   131  SER131     -0.2183
    136  N        139.0200   -0.1610  104.6660 N.3   170  ALA170     -0.1245
    137  CA       138.6420    1.0660  105.3390 C.3   170  ALA170      0.1562
    138  C        139.6930    1.5270  106.3410 C.2   170  ALA170      0.2260
    139  O        139.5790    2.6170  106.9100 O.2   170  ALA170     -0.2867
    140  CB       137.3000    0.8790  106.0370 C.3   170  ALA170      0.0290
@<TRIPOS>BOND
     1    34    33    2
     2    37    38    1
     3    37    36    1
     4    33    32    1
     5    39    40    1
     6    36    35    1
     7    40    41    1
     8    40    43    1
     9    35    32    1
    10    17    16    1
    11    18    16    1
    12    32    31    1
    13    42    41    2
    14    16    15    2
    15    31    26   am
    16    15    14    1
    17    30    28    1
    18    28    25    1
    19    28    29    1
    20    26    25    1
    21    26    27    2
    22    25    24    1
    23    14    13    1
    24    22    21    2
    25   136   137    1
    26    13    12    1
    27   137   140    1
    28   137   138    1
    29    24    21   am
    30    21    20    1
    31   138   139    2
    32    12     9    1
    33    19    20    1
    34    19    10   am
    35    20    23    1
    36     9    10    1
    37     9     8    1
    38    10    11    2
    39    44    45    1
    40   135   134    1
    41   134   131    1
    42     1     2    1
    43   107   105    1
    44    48    45    1
    45    45    46    1
    46   133   132    2
    47   105   106    1
    48   105   102    1
    49   132   131    1
    50   131   130    1
    51    66    65    1
    52     2     3    1
    53     2     5    1
    54     6     5    1
    55    65    64    1
    56   101   102    1
    57   101    97   am
    58    46    47    2
    59    46    49   am
    60     4     3    2
    61   100    99    1
    62     5     7    1
    63   102   103    1
    64    94    93    2
    65    96    99    1
    66    96    97    1
    67    96    95    1
    68   120   119    2
    69   129   127    1
    70    49    50    1
    71   103   104    2
    72    97    98    2
    73    93    95   am
    74    93    92    1
    75   121   119   am
    76    64    63    1
    77   119   118    1
    78   127   126    1
    79   127   128    1
    80    92    91    1
    81    63    62    1
    82    50    53    1
    83    50    51    1
    84   126   123    1
    85    91    88   am
    86    52    51    2
    87   118   117    1
    88    53    54    1
    89    51    58   am
    90   125   124    2
    91    62    59    1
    92   117   114    1
    93    88    87    1
    94    88    89    2
    95    58    59    1
    96   123   124    1
    97   123   122    1
    98    87    90    1
    99    87    86    1
   100    82    81    2
   101    59    60    1
   102    54    55    1
   103   108   109    1
   104   112   109    1
   105   113   114    1
   106   113   110   am
   107   114   115    1
   108    78    77    1
   109    55    56    1
   110    81    86   am
   111    81    80    1
   112    84    83    1
   113   109   110    1
   114   110   111    2
   115    60    61    2
   116   115   116    2
   117    77    76   ar
   118    77    75   ar
   119    83    80    1
   120    83    85    1
   121    80    79    1
   122    56    57    1
   123    76    74   ar
   124    75    73   ar
   125    74    72   ar
   126    73    72   ar
   127    72    71    1
   128    67    68    1
   129    68    71    1
   130    68    69    1
   131    69    70    2
