@<TRIPOS>MOLECULE
tmp/1j2rC02.pdb
 95 97 0 0 0
SMALL
GASTEIGER

@<TRIPOS>ATOM
      1  N         75.0660   22.9810    6.3760 N.3    22  PHE22      -0.1241
      2  CA        74.6760   24.3860    6.3780 C.3    22  PHE22       0.1605
      3  C         75.2340   25.1900    7.5690 C.2    22  PHE22       0.2264
      4  O         75.0440   26.4030    7.6280 O.2    22  PHE22      -0.2867
      5  CB        73.1400   24.5010    6.3190 C.3    22  PHE22       0.0534
      6  CG        72.5570   24.0020    5.0270 C.ar   22  PHE22      -0.0203
      7  CD1       71.9750   22.7550    4.9490 C.ar   22  PHE22      -0.0042
      8  CD2       72.6160   24.7840    3.8740 C.ar   22  PHE22      -0.0042
      9  CE1       71.4520   22.2880    3.7540 C.ar   22  PHE22      -0.0003
     10  CE2       72.0860   24.3220    2.6770 C.ar   22  PHE22      -0.0003
     11  CZ        71.4980   23.0800    2.6190 C.ar   22  PHE22      -0.0000
     12  N         60.4650   17.1050    3.9170 N.3    57  TRP57      -0.1241
     13  CA        59.2870   17.0000    3.0520 C.3    57  TRP57       0.1605
     14  C         59.3200   15.6450    2.3820 C.2    57  TRP57       0.2264
     15  O         60.3750   15.0420    2.2240 O.2    57  TRP57      -0.2867
     16  CB        59.3020   18.1040    1.9760 C.3    57  TRP57       0.0550
     17  CG        59.5410   19.4330    2.6140 C.ar   57  TRP57       0.0003
     18  CD1       58.6180   20.2400    3.1890 C.ar   57  TRP57       0.0946
     19  CD2       60.8090   20.0060    2.8830 C.ar   57  TRP57       0.0152
     20  NE1       59.2340   21.3160    3.7780 N.ar   57  TRP57      -0.2442
     21  CE2       60.5870   21.1870    3.6160 C.ar   57  TRP57       0.0810
     22  CE3       62.1290   19.6470    2.5720 C.ar   57  TRP57       0.0012
     23  CZ2       61.6290   22.0130    4.0280 C.ar   57  TRP57       0.0191
     24  CZ3       63.1600   20.4620    2.9890 C.ar   57  TRP57       0.0001
     25  CH2       62.9040   21.6300    3.7050 C.ar   57  TRP57       0.0015
     26  N         57.2220   16.9270   -2.2560 N.3    61  TYR61      -0.1241
     27  CA        57.2710   18.2780   -1.6750 C.3    61  TYR61       0.1605
     28  C         55.8820   18.8510   -1.3890 C.2    61  TYR61       0.2264
     29  O         55.7040   20.0590   -1.3030 O.2    61  TYR61      -0.2867
     30  CB        58.1110   19.2270   -2.5500 C.3    61  TYR61       0.0534
     31  CG        59.6150   19.1360   -2.3230 C.ar   61  TYR61      -0.0201
     32  CD1       60.2360   19.8730   -1.3190 C.ar   61  TYR61      -0.0009
     33  CD2       60.4130   18.3030   -3.1040 C.ar   61  TYR61      -0.0009
     34  CE1       61.6100   19.7940   -1.1000 C.ar   61  TYR61       0.0417
     35  CE2       61.7970   18.2260   -2.9010 C.ar   61  TYR61       0.0417
     36  CZ        62.3830   18.9750   -1.9020 C.ar   61  TYR61       0.1957
     37  OH        63.7390   18.9080   -1.6870 O.3    61  TYR61      -0.2866
     38  N         64.5320   27.9210   -2.4410 N.3    73  SER73      -0.1203
     39  CA        65.3860   26.7470   -2.3260 C.3    73  SER73       0.2005
     40  C         64.9520   25.7470   -3.4090 C.2    73  SER73       0.2460
     41  O         63.7640   25.5850   -3.6620 O.2    73  SER73      -0.2732
     42  CB        65.2610   26.1200   -0.9350 C.3    73  SER73       0.2103
     43  OG        65.7510   26.9760    0.0840 O.3    73  SER73      -0.2182
     44  N         65.9030   25.0800   -4.0580 N.am   74  PRO74      -0.2728
     45  CA        65.5630   24.1180   -5.1150 C.3    74  PRO74       0.1401
     46  C         64.9130   22.8610   -4.5330 C.2    74  PRO74       0.2269
     47  O         65.3180   22.4190   -3.4660 O.2    74  PRO74      -0.2865
     48  CB        66.9240   23.8010   -5.7480 C.3    74  PRO74       0.0296
     49  CG        67.9140   24.0710   -4.6980 C.3    74  PRO74       0.0237
     50  CD        67.3580   25.1820   -3.8510 C.3    74  PRO74       0.0939
     51  N         65.1850   19.6670   -4.7420 N.3    76  LYS76      -0.1231
     52  CA        66.0460   18.5730   -5.1620 C.3    76  LYS76       0.1693
     53  C         65.6930   17.3180   -4.3690 C.2    76  LYS76       0.2592
     54  O         65.0470   17.3850   -3.3280 O.2    76  LYS76      -0.2718
     55  CB        67.5080   18.9700   -4.9370 C.3    76  LYS76       0.0285
     56  CG        68.5510   18.0170   -5.5070 C.3    76  LYS76       0.0035
     57  CD        68.5060   17.9420   -7.0460 C.3    76  LYS76       0.0206
     58  CE        68.2670   16.5160   -7.5550 C.3    76  LYS76       0.1093
     59  NZ        66.8950   16.3550   -8.0820 N.3    76  LYS76      -0.1314
     60  N         66.0920   16.1590   -4.8770 N.am   77  VAL77      -0.1966
     61  CA        65.8930   14.9070   -4.1630 C.3    77  VAL77       0.1727
     62  C         66.7430   14.9480   -2.9020 C.2    77  VAL77       0.2616
     63  O         67.9440   15.2220   -2.9620 O.2    77  VAL77      -0.2715
     64  CB        66.2820   13.6770   -5.0350 C.3    77  VAL77       0.0290
     65  CG1       66.0870   12.3830   -4.2620 C.3    77  VAL77       0.0023
     66  CG2       65.4830   13.6390   -6.3230 C.3    77  VAL77       0.0023
     67  N         66.1170   14.6980   -1.7550 N.am   78  LEU78      -0.1964
     68  CA        66.8330   14.7630   -0.4870 C.3    78  LEU78       0.1713
     69  C         67.8200   13.6050   -0.4110 C.2    78  LEU78       0.2458
     70  O         67.5010   12.4950   -0.8440 O.2    78  LEU78      -0.2730
     71  CB        65.8520   14.7210    0.6970 C.3    78  LEU78       0.0310
     72  CG        64.8740   15.9010    0.8110 C.3    78  LEU78       0.0022
     73  CD1       63.9610   15.7020    2.0230 C.3    78  LEU78       0.0001
     74  CD2       65.5800   17.2330    0.9030 C.3    78  LEU78       0.0001
     75  N         69.0060   13.8340    0.1400 N.am   79  PRO79      -0.2727
     76  CA        69.9840   12.7520    0.2770 C.3    79  PRO79       0.1402
     77  C         69.4550   11.6640    1.2020 C.2    79  PRO79       0.2269
     78  O         68.5900   11.9370    2.0290 O.2    79  PRO79      -0.2865
     79  CB        71.1980   13.4500    0.8880 C.3    79  PRO79       0.0296
     80  CG        70.6530   14.6490    1.5690 C.3    79  PRO79       0.0237
     81  CD        69.5020   15.0990    0.7160 C.3    79  PRO79       0.0939
     82  N         69.2910   12.3960    4.9870 N.3    82  TRP82      -0.1241
     83  CA        68.7240   13.7120    5.3170 C.3    82  TRP82       0.1605
     84  C         68.2200   13.8070    6.7480 C.2    82  TRP82       0.2264
     85  O         68.5050   14.7760    7.4480 O.2    82  TRP82      -0.2867
     86  CB        67.5850   14.0490    4.3500 C.3    82  TRP82       0.0550
     87  CG        66.9000   15.3510    4.6550 C.ar   82  TRP82       0.0003
     88  CD1       65.7230   15.5210    5.3200 C.ar   82  TRP82       0.0946
     89  CD2       67.3630   16.6610    4.3110 C.ar   82  TRP82       0.0152
     90  NE1       65.4270   16.8620    5.4130 N.ar   82  TRP82      -0.2442
     91  CE2       66.4110   17.5860    4.7990 C.ar   82  TRP82       0.0810
     92  CE3       68.4990   17.1540    3.6500 C.ar   82  TRP82       0.0012
     93  CZ2       66.5590   18.9690    4.6480 C.ar   82  TRP82       0.0191
     94  CZ3       68.6410   18.5190    3.4940 C.ar   82  TRP82       0.0001
     95  CH2       67.6710   19.4140    3.9800 C.ar   82  TRP82       0.0015
@<TRIPOS>BOND
     1    59    58    1
     2    58    57    1
     3    57    56    1
     4    66    64    1
     5    48    45    1
     6    48    49    1
     7    56    55    1
     8    52    55    1
     9    52    51    1
    10    52    53    1
    11    45    46    1
    12    45    44    1
    13    64    65    1
    14    64    61    1
    15    60    53   am
    16    60    61    1
    17    49    50    1
    18    46    47    2
    19    53    54    2
    20    61    62    1
    21    44    50    1
    22    44    40   am
    23    41    40    2
    24    40    39    1
    25    33    35   ar
    26    33    31   ar
    27    63    62    2
    28    62    67   am
    29    35    36   ar
    30    30    31    1
    31    30    27    1
    32    38    39    1
    33    39    42    1
    34    31    32   ar
    35    26    27    1
    36    36    37    1
    37    36    34   ar
    38    67    68    1
    39    27    28    1
    40    28    29    2
    41    32    34   ar
    42    42    43    1
    43    70    69    2
    44    68    69    1
    45    68    71    1
    46    69    75   am
    47    75    76    1
    48    75    81    1
    49    76    79    1
    50    76    77    1
    51    71    72    1
    52    81    80    1
    53    72    74    1
    54    72    73    1
    55    79    80    1
    56    77    78    2
    57    16    17    1
    58    16    13    1
    59    15    14    2
    60    14    13    1
    61    22    19   ar
    62    22    24   ar
    63    17    19   ar
    64    17    18   ar
    65    11    10   ar
    66    11     9   ar
    67    10     8   ar
    68    19    21   ar
    69    24    25   ar
    70    13    12    1
    71    18    20   ar
    72    94    92   ar
    73    94    95   ar
    74    21    20   ar
    75    21    23   ar
    76    92    89   ar
    77    25    23   ar
    78     9     7   ar
    79     8     6   ar
    80    95    93   ar
    81    89    87   ar
    82    89    91   ar
    83    86    87    1
    84    86    83    1
    85    93    91   ar
    86    87    88   ar
    87    91    90   ar
    88     7     6   ar
    89    82    83    1
    90     6     5    1
    91    83    84    1
    92    88    90   ar
    93     5     2    1
    94     1     2    1
    95     2     3    1
    96    84    85    2
    97     3     4    2
