@<TRIPOS>MOLECULE
tmp/1j2rD00.pdb
 109 105 0 0 0
SMALL
GASTEIGER

@<TRIPOS>ATOM
      1  N         53.1770   49.6050   12.9770 N.3    15  ASP15      -0.1239
      2  CA        53.5700   50.4660   14.0960 C.3    15  ASP15       0.1674
      3  C         54.0390   51.8430   13.6690 C.2    15  ASP15       0.2266
      4  O         54.9470   52.4160   14.2710 O.2    15  ASP15      -0.2867
      5  CB        54.6180   49.7580   14.9510 C.3    15  ASP15       0.1410
      6  CG        54.0960   48.4810   15.5720 C.2    15  ASP15       0.3668
      7  OD1       52.8740   48.2050   15.5120 O.co2  15  ASP15      -0.2456
      8  OD2       54.8950   47.6990   16.1360 O.co2  15  ASP15      -0.2456
      9  N         56.5810   55.2010   18.2750 N.3    20  ILE20      -0.1245
     10  CA        57.5650   54.2880   17.6880 C.3    20  ILE20       0.1561
     11  C         58.5210   55.0070   16.7420 C.2    20  ILE20       0.2260
     12  O         59.6660   54.5740   16.5850 O.2    20  ILE20      -0.2867
     13  CB        56.8260   53.1330   16.9640 C.3    20  ILE20       0.0252
     14  CG1       56.1020   52.2490   17.9830 C.3    20  ILE20       0.0019
     15  CG2       57.7480   52.2770   16.0680 C.3    20  ILE20       0.0019
     16  CD1       56.9900   51.3950   18.8240 C.3    20  ILE20       0.0001
     17  N         62.3630   55.5020   17.1290 N.3    23  PHE23      -0.1241
     18  CA        63.2310   54.3340   17.0840 C.3    23  PHE23       0.1605
     19  C         63.7890   54.0450   15.6900 C.2    23  PHE23       0.2264
     20  O         64.6310   53.1600   15.5510 O.2    23  PHE23      -0.2867
     21  CB        62.4960   53.1010   17.6300 C.3    23  PHE23       0.0534
     22  CG        62.1780   53.1860   19.0870 C.ar   23  PHE23      -0.0203
     23  CD1       60.8980   53.5080   19.5130 C.ar   23  PHE23      -0.0042
     24  CD2       63.1670   52.9650   20.0440 C.ar   23  PHE23      -0.0042
     25  CE1       60.5970   53.5920   20.8800 C.ar   23  PHE23      -0.0003
     26  CE2       62.8780   53.0530   21.4040 C.ar   23  PHE23      -0.0003
     27  CZ        61.5910   53.3640   21.8190 C.ar   23  PHE23      -0.0000
     28  N         51.1950   48.9000   18.2650 N.3    56  VAL56      -0.1245
     29  CA        51.6220   48.0810   19.4000 C.3    56  VAL56       0.1561
     30  C         51.4920   48.8760   20.6890 C.2    56  VAL56       0.2260
     31  O         51.7750   50.0720   20.7340 O.2    56  VAL56      -0.2867
     32  CB        53.0550   47.5500   19.2060 C.3    56  VAL56       0.0252
     33  CG1       54.0980   48.6840   19.1990 C.3    56  VAL56       0.0019
     34  CG2       53.3960   46.4810   20.2310 C.3    56  VAL56       0.0019
     35  N         50.1950   48.5820   25.2640 N.3    58  TRP58      -0.1241
     36  CA        49.6660   47.8920   26.4450 C.3    58  TRP58       0.1605
     37  C         48.8600   48.8940   27.2440 C.2    58  TRP58       0.2264
     38  O         49.0520   50.1130   27.1400 O.2    58  TRP58      -0.2867
     39  CB        50.8300   47.3160   27.2910 C.3    58  TRP58       0.0550
     40  CG        51.7510   46.5740   26.3880 C.ar   58  TRP58       0.0003
     41  CD1       51.6310   45.2740   25.9710 C.ar   58  TRP58       0.0946
     42  CD2       52.8450   47.1340   25.6650 C.ar   58  TRP58       0.0152
     43  NE1       52.6190   44.9870   25.0610 N.ar   58  TRP58      -0.2442
     44  CE2       53.3700   46.1150   24.8410 C.ar   58  TRP58       0.0810
     45  CE3       53.4360   48.4050   25.6290 C.ar   58  TRP58       0.0012
     46  CZ2       54.4630   46.3230   24.0060 C.ar   58  TRP58       0.0191
     47  CZ3       54.5190   48.6100   24.7870 C.ar   58  TRP58       0.0001
     48  CH2       55.0180   47.5710   23.9930 C.ar   58  TRP58       0.0015
     49  N         62.8150   45.8910   27.9610 N.3    74  SER74      -0.1217
     50  CA        62.3340   47.2590   27.7980 C.3    74  SER74       0.1889
     51  C         61.6930   47.6830   29.1280 C.2    74  SER74       0.2288
     52  O         61.0500   46.8810   29.7940 O.2    74  SER74      -0.2866
     53  CB        61.3430   47.3620   26.6440 C.3    74  SER74       0.2089
     54  OG        61.8840   46.8360   25.4460 O.3    74  SER74      -0.2183
     55  N         51.6750   58.1150   22.1630 N.3    83  TRP83      -0.1241
     56  CA        52.1780   56.7830   21.8210 C.3    83  TRP83       0.1605
     57  C         51.4550   56.1430   20.6450 C.2    83  TRP83       0.2264
     58  O         52.0950   55.5960   19.7430 O.2    83  TRP83      -0.2867
     59  CB        52.0690   55.8590   23.0390 C.3    83  TRP83       0.0550
     60  CG        52.5220   54.4720   22.7680 C.ar   83  TRP83       0.0003
     61  CD1       51.7320   53.4080   22.4760 C.ar   83  TRP83       0.0946
     62  CD2       53.8720   54.0000   22.7410 C.ar   83  TRP83       0.0152
     63  NE1       52.5020   52.2860   22.2830 N.ar   83  TRP83      -0.2442
     64  CE2       53.8220   52.6210   22.4370 C.ar   83  TRP83       0.0810
     65  CE3       55.1240   54.5930   22.9490 C.ar   83  TRP83       0.0012
     66  CZ2       54.9840   51.8320   22.3180 C.ar   83  TRP83       0.0191
     67  CZ3       56.2660   53.8110   22.8510 C.ar   83  TRP83       0.0001
     68  CH2       56.1890   52.4410   22.5310 C.ar   83  TRP83       0.0015
     69  N         55.7820   41.7680   19.2090 N.3   104  TRP104     -0.1241
     70  CA        56.3880   42.0720   17.9140 C.3   104  TRP104      0.1605
     71  C         55.5030   41.7190   16.7210 C.2   104  TRP104      0.2264
     72  O         55.2000   42.5760   15.8880 O.2   104  TRP104     -0.2867
     73  CB        57.7450   41.3730   17.7880 C.3   104  TRP104      0.0550
     74  CG        58.8090   41.7970   18.7500 C.ar  104  TRP104      0.0003
     75  CD1       58.6980   42.6490   19.8040 C.ar  104  TRP104      0.0946
     76  CD2       60.1580   41.3330   18.7420 C.ar  104  TRP104      0.0152
     77  NE1       59.9120   42.7630   20.4490 N.ar  104  TRP104     -0.2442
     78  CE2       60.8240   41.9600   19.8140 C.ar  104  TRP104      0.0810
     79  CE3       60.8830   40.4710   17.9140 C.ar  104  TRP104      0.0012
     80  CZ2       62.1770   41.7660   20.0570 C.ar  104  TRP104      0.0191
     81  CZ3       62.2360   40.2930   18.1570 C.ar  104  TRP104      0.0001
     82  CH2       62.8510   40.9160   19.2370 C.ar  104  TRP104      0.0015
     83  N         57.9930   49.9230   10.9620 N.3   129  ILE129     -0.1231
     84  CA        59.1310   49.9900   11.8690 C.3   129  ILE129      0.1692
     85  C         58.8750   48.9870   12.9960 C.2   129  ILE129      0.2592
     86  O         57.7690   48.9850   13.5430 O.2   129  ILE129     -0.2718
     87  CB        59.2550   51.4090   12.4790 C.3   129  ILE129      0.0266
     88  CG1       59.5470   52.4480   11.4060 C.3   129  ILE129      0.0019
     89  CG2       60.3470   51.4570   13.5440 C.3   129  ILE129      0.0020
     90  CD1       59.2950   53.8670   11.8410 C.3   129  ILE129      0.0001
     91  N         59.8300   48.1480   13.3920 N.am  130  SER130     -0.1952
     92  CA        61.1990   48.0660   12.9120 C.3   130  SER130      0.1924
     93  C         61.3840   46.8710   11.9680 C.2   130  SER130      0.2314
     94  O         60.8700   45.7640   12.2220 O.2   130  SER130     -0.2863
     95  CB        62.1600   47.9040   14.0800 C.3   130  SER130      0.2116
     96  OG        63.4270   47.5630   13.5930 O.3   130  SER130     -0.2180
     97  N         62.4160   43.6460   13.7430 N.3   133  ILE133     -0.1245
     98  CA        61.7170   43.3400   14.9890 C.3   133  ILE133      0.1561
     99  C         60.2390   43.0060   14.6660 C.2   133  ILE133      0.2260
    100  O         59.9610   41.8840   14.2310 O.2   133  ILE133     -0.2867
    101  CB        61.9190   44.4960   16.0340 C.3   133  ILE133      0.0252
    102  CG1       63.4170   44.8550   16.1700 C.3   133  ILE133      0.0019
    103  CG2       61.3620   44.1090   17.3810 C.3   133  ILE133      0.0019
    104  CD1       64.3100   43.7470   16.7210 C.3   133  ILE133      0.0001
    105  N         66.4490   49.9680   14.0190 N.3   159  ALA159     -0.1245
    106  CA        67.3060   50.6970   14.9680 C.3   159  ALA159      0.1562
    107  C         68.6140   51.1260   14.3280 C.2   159  ALA159      0.2260
    108  O         69.1640   52.1690   14.6850 O.2   159  ALA159     -0.2867
    109  CB        67.5980   49.8300   16.2030 C.3   159  ALA159      0.0290
@<TRIPOS>BOND
     1    83    84    1
     2    88    90    1
     3    88    87    1
     4    84    87    1
     5    84    85    1
     6    93    94    2
     7    93    92    1
     8    87    89    1
     9    92    91    1
    10    92    95    1
    11     1     2    1
    12    85    91   am
    13    85    86    2
    14    96    95    1
    15     3     2    1
    16     3     4    2
    17    97    98    1
    18   105   106    1
    19     2     5    1
    20   100    99    2
    21   107   108    2
    22   107   106    1
    23    99    98    1
    24     5     6    1
    25   106   109    1
    26    98   101    1
    27     7     6   ar
    28    20    19    2
    29     6     8   ar
    30    19    18    1
    31    72    71    2
    32   101   102    1
    33   101   103    1
    34    15    13    1
    35   102   104    1
    36    12    11    2
    37    71    70    1
    38    11    10    1
    39    13    10    1
    40    13    14    1
    41    18    17    1
    42    18    21    1
    43    21    22    1
    44    10     9    1
    45    73    70    1
    46    73    74    1
    47    70    69    1
    48    79    81   ar
    49    79    76   ar
    50    14    16    1
    51    81    82   ar
    52    28    29    1
    53    76    74   ar
    54    76    78   ar
    55    74    75   ar
    56    22    23   ar
    57    22    24   ar
    58    33    32    1
    59    32    29    1
    60    32    34    1
    61    82    80   ar
    62    29    30    1
    63    23    25   ar
    64    58    57    2
    65    75    77   ar
    66    78    80   ar
    67    78    77   ar
    68    24    26   ar
    69    57    56    1
    70    30    31    2
    71    25    27   ar
    72    26    27   ar
    73    56    55    1
    74    56    59    1
    75    63    64   ar
    76    63    61   ar
    77    66    64   ar
    78    66    68   ar
    79    64    62   ar
    80    61    60   ar
    81    68    67   ar
    82    62    60   ar
    83    62    65   ar
    84    60    59    1
    85    67    65   ar
    86    48    46   ar
    87    48    47   ar
    88    46    44   ar
    89    47    45   ar
    90    44    43   ar
    91    44    42   ar
    92    43    41   ar
    93    35    36    1
    94    54    53    1
    95    45    42   ar
    96    42    40   ar
    97    41    40   ar
    98    40    39    1
    99    36    37    1
   100    36    39    1
   101    53    50    1
   102    38    37    2
   103    50    49    1
   104    50    51    1
   105    51    52    2
