@<TRIPOS>MOLECULE
tmp/1j2zA00.pdb
 118 114 0 0 0
SMALL
GASTEIGER

@<TRIPOS>ATOM
      1  N         37.5230   12.3990  137.8290 N.3    68  GLN68      -0.1231
      2  CA        36.4380   13.2630  137.3850 C.3    68  GLN68       0.1698
      3  C         35.4240   12.4560  136.5850 C.2    68  GLN68       0.2592
      4  O         34.2430   12.7960  136.5360 O.2    68  GLN68      -0.2718
      5  CB        37.0030   14.4110  136.5450 C.3    68  GLN68       0.0381
      6  CG        38.0320   15.2360  137.3070 C.3    68  GLN68       0.0905
      7  CD        38.4750   16.4740  136.5570 C.2    68  GLN68       0.2608
      8  OE1       39.1220   16.3910  135.5120 O.2    68  GLN68      -0.2717
      9  NE2       38.1280   17.6330  137.0910 N.am   68  GLN68      -0.0878
     10  N         35.9000   11.3740  135.9780 N.am   69  ASP69      -0.1974
     11  CA        35.0620   10.4770  135.1870 C.3    69  ASP69       0.1709
     12  C         33.7360   10.1630  135.8900 C.2    69  ASP69       0.2293
     13  O         33.7020    9.9090  137.0960 O.2    69  ASP69      -0.2864
     14  CB        35.8270    9.1800  134.9140 C.3    69  ASP69       0.1436
     15  CG        34.9720    8.1250  134.2450 C.2    69  ASP69       0.3671
     16  OD1       34.4280    8.3960  133.1530 O.co2  69  ASP69      -0.2456
     17  OD2       34.8490    7.0200  134.8120 O.co2  69  ASP69      -0.2456
     18  N         44.6120   11.9270  139.7080 N.3    94  ASN94      -0.1240
     19  CA        43.6140   11.0120  140.2440 C.3    94  ASN94       0.1653
     20  C         44.0420    9.5570  140.1450 C.2    94  ASN94       0.2266
     21  O         44.8870    9.2050  139.3200 O.2    94  ASN94      -0.2867
     22  CB        42.2960   11.1810  139.4830 C.3    94  ASN94       0.1155
     23  CG        41.7940   12.6070  139.5070 C.2    94  ASN94       0.2627
     24  OD1       41.6040   13.1910  140.5740 O.2    94  ASN94      -0.2716
     25  ND2       41.5770   13.1760  138.3300 N.am   94  ASN94      -0.0877
     26  N         47.5910   18.0160  134.7820 N.3   117  HIS117     -0.1241
     27  CA        46.5740   17.0910  135.2690 C.3   117  HIS117      0.1621
     28  C         46.7830   15.6970  134.6930 C.2   117  HIS117      0.2264
     29  O         46.9030   15.5300  133.4810 O.2   117  HIS117     -0.2867
     30  CB        45.1600   17.5490  134.9060 C.3   117  HIS117      0.0745
     31  CG        44.1110   16.5190  135.2040 C.ar  117  HIS117      0.0817
     32  ND1       43.2950   15.9820  134.2330 N.ar  117  HIS117     -0.2268
     33  CD2       43.7850   15.8900  136.3570 C.ar  117  HIS117      0.1154
     34  CE1       42.5120   15.0650  134.7740 C.ar  117  HIS117      0.1986
     35  NE2       42.7900   14.9900  136.0620 N.ar  117  HIS117     -0.2212
     36  N         44.9200   12.2110  134.5040 N.3   119  ALA119     -0.1231
     37  CA        43.6420   11.5440  134.7390 C.3   119  ALA119      0.1694
     38  C         43.7650   10.0980  135.2090 C.2   119  ALA119      0.2592
     39  O         44.8410    9.4930  135.1780 O.2   119  ALA119     -0.2718
     40  CB        42.7770   11.6070  133.4720 C.3   119  ALA119      0.0304
     41  N         42.6350    9.5530  135.6430 N.am  120  HIS120     -0.1976
     42  CA        42.5690    8.1870  136.1290 C.3   120  HIS120      0.1656
     43  C         43.1180    7.1790  135.1280 C.2   120  HIS120      0.2291
     44  O         42.9950    7.3540  133.9100 O.2   120  HIS120     -0.2864
     45  CB        41.1190    7.8130  136.4440 C.3   120  HIS120      0.0771
     46  CG        40.2280    7.7930  135.2410 C.ar  120  HIS120      0.0820
     47  ND1       39.5210    8.8960  134.8160 N.ar  120  HIS120     -0.2267
     48  CD2       39.9450    6.8030  134.3610 C.ar  120  HIS120      0.1154
     49  CE1       38.8390    8.5860  133.7280 C.ar  120  HIS120      0.1986
     50  NE2       39.0800    7.3220  133.4300 N.ar  120  HIS120     -0.2212
     51  N         47.5370   18.2990  129.8510 N.3   135  THR135     -0.1203
     52  CA        46.3220   17.6360  130.2900 C.3   135  THR135      0.1994
     53  C         46.2140   16.2280  129.7230 C.2   135  THR135      0.2618
     54  O         46.1170   16.0390  128.5100 O.2   135  THR135     -0.2717
     55  CB        45.0780   18.4410  129.8590 C.3   135  THR135      0.1784
     56  OG1       45.1520   19.7630  130.4110 O.3   135  THR135     -0.2211
     57  CG2       43.8090   17.7660  130.3520 C.3   135  THR135      0.0376
     58  N         46.2360   15.2380  130.6070 N.am  136  LEU136     -0.1965
     59  CA        46.1290   13.8540  130.1730 C.3   136  LEU136      0.1728
     60  C         44.7330   13.3210  130.4600 C.2   136  LEU136      0.2616
     61  O         44.2630   13.3750  131.5980 O.2   136  LEU136     -0.2715
     62  CB        47.1480   12.9740  130.9030 C.3   136  LEU136      0.0311
     63  CG        48.6370   13.3280  130.8470 C.3   136  LEU136      0.0022
     64  CD1       49.4280   12.2530  131.5840 C.3   136  LEU136      0.0001
     65  CD2       49.1090   13.4280  129.4080 C.3   136  LEU136      0.0001
     66  N         44.0680   12.8190  129.4260 N.am  137  ALA137     -0.1963
     67  CA        42.7460   12.2340  129.5970 C.3   137  ALA137      0.1728
     68  C         42.9780   10.8510  130.2130 C.2   137  ALA137      0.2617
     69  O         44.1100   10.4840  130.5190 O.2   137  ALA137     -0.2715
     70  CB        42.0370   12.1150  128.2460 C.3   137  ALA137      0.0334
     71  N         41.9210   10.0700  130.3810 N.am  138  GLY138     -0.1940
     72  CA        42.0900    8.7660  130.9970 C.3   138  GLY138      0.2014
     73  C         42.7440    7.6670  130.1790 C.2   138  GLY138      0.2638
     74  O         42.7970    7.7280  128.9520 O.2   138  GLY138     -0.2714
     75  N         43.2690    6.6690  130.8830 N.am  139  HIS139     -0.1973
     76  CA        43.8820    5.4900  130.2670 C.3   139  HIS139      0.1656
     77  C         45.0680    5.7450  129.3400 C.2   139  HIS139      0.2291
     78  O         45.2730    4.9990  128.3820 O.2   139  HIS139     -0.2864
     79  CB        42.8100    4.7210  129.4830 C.3   139  HIS139      0.0771
     80  CG        41.4940    4.6180  130.1930 C.ar  139  HIS139      0.0820
     81  ND1       41.2250    3.6470  131.1350 N.ar  139  HIS139     -0.2267
     82  CD2       40.3740    5.3760  130.1040 C.ar  139  HIS139      0.1154
     83  CE1       39.9970    3.8100  131.5950 C.ar  139  HIS139      0.1986
     84  NE2       39.4580    4.8520  130.9860 N.ar  139  HIS139     -0.2212
     85  N         44.4640   12.8300  124.3620 N.3   155  HIS155     -0.1226
     86  CA        43.1540   12.1980  124.4870 C.3   155  HIS155      0.1752
     87  C         43.2160   10.7940  125.0840 C.2   155  HIS155      0.2595
     88  O         44.2730   10.1720  125.1230 O.2   155  HIS155     -0.2718
     89  CB        42.4560   12.1600  123.1250 C.3   155  HIS155      0.0759
     90  CG        42.2950   13.5080  122.4930 C.ar  155  HIS155      0.0818
     91  ND1       42.0420   14.6480  123.2250 N.ar  155  HIS155     -0.2268
     92  CD2       42.3270   13.8950  121.1950 C.ar  155  HIS155      0.1154
     93  CE1       41.9270   15.6790  122.4070 C.ar  155  HIS155      0.1986
     94  NE2       42.0950   15.2490  121.1690 N.ar  155  HIS155     -0.2212
     95  N         42.0640   10.3030  125.5310 N.am  156  GLN156     -0.1979
     96  CA        41.9550    8.9970  126.1690 C.3   156  GLN156      0.1601
     97  C         42.5310    7.8260  125.3730 C.2   156  GLN156      0.2287
     98  O         42.4110    7.7630  124.1550 O.2   156  GLN156     -0.2864
     99  CB        40.4860    8.7050  126.5020 C.3   156  GLN156      0.0394
    100  CG        39.6340    8.3560  125.2840 C.3   156  GLN156      0.0908
    101  CD        38.1600    8.2190  125.6090 C.2   156  GLN156      0.2608
    102  OE1       37.7860    7.6100  126.6100 O.2   156  GLN156     -0.2717
    103  NE2       37.3140    8.7750  124.7540 N.am  156  GLN156     -0.0878
    104  N         45.6050   12.5700  119.4310 N.3   173  GLY173     -0.1225
    105  CA        44.5430   11.5830  119.4860 C.3   173  GLY173      0.1811
    106  C         44.9680   10.2110  118.9910 C.2   173  GLY173      0.2280
    107  O         44.1430    9.3050  118.8770 O.2   173  GLY173     -0.2866
    108  N         44.0880    3.0000  119.2650 N.3   252  ARG252     -0.1245
    109  CA        43.5880    4.2010  118.6120 C.3   252  ARG252      0.1563
    110  C         44.2210    4.4150  117.2510 C.2   252  ARG252      0.2260
    111  O         43.8130    5.3000  116.5060 O.2   252  ARG252     -0.2867
    112  CB        43.8470    5.4210  119.4960 C.3   252  ARG252      0.0307
    113  CG        43.2510    5.2870  120.8800 C.3   252  ARG252      0.0489
    114  CD        42.7240    6.6060  121.3690 C.3   252  ARG252      0.2205
    115  NE        41.6970    7.1210  120.4720 N.pl3 252  ARG252     -0.0865
    116  CZ        41.0490    8.2640  120.6630 C.cat 252  ARG252      0.5346
    117  NH1       41.3220    9.0120  121.7240 N.pl3 252  ARG252      0.1354
    118  NH2       40.1300    8.6580  119.7920 N.pl3 252  ARG252      0.1354
@<TRIPOS>BOND
     1   111   110    2
     2   110   109    1
     3   109   108    1
     4   109   112    1
     5   107   106    2
     6   106   105    1
     7   104   105    1
     8   112   113    1
     9   118   116    1
    10   115   116    2
    11   115   114    1
    12   116   117    1
    13   113   114    1
    14    94    92   ar
    15    94    93   ar
    16    92    90   ar
    17    93    91   ar
    18    90    89    1
    19    90    91   ar
    20    89    86    1
    21    98    97    2
    22    85    86    1
    23    86    87    1
    24   103   101   am
    25    87    88    2
    26    87    95   am
    27   100   101    1
    28   100    99    1
    29    97    96    1
    30    95    96    1
    31   101   102    2
    32    96    99    1
    33    70    67    1
    34    78    77    2
    35    54    53    2
    36    74    73    2
    37    77    76    1
    38    65    63    1
    39    66    67    1
    40    66    60   am
    41    79    80    1
    42    79    76    1
    43    67    68    1
    44    53    52    1
    45    53    58   am
    46    51    52    1
    47    55    52    1
    48    55    57    1
    49    55    56    1
    50    82    80   ar
    51    82    84   ar
    52    59    60    1
    53    59    58    1
    54    59    62    1
    55    73    75   am
    56    73    72    1
    57    80    81   ar
    58    68    71   am
    59    68    69    2
    60    76    75    1
    61    71    72    1
    62    60    61    2
    63    63    62    1
    64    63    64    1
    65    84    83   ar
    66    81    83   ar
    67    16    15   ar
    68    50    49   ar
    69    50    48   ar
    70    40    37    1
    71    29    28    2
    72    49    47   ar
    73    44    43    2
    74    32    34   ar
    75    32    31   ar
    76    15    17   ar
    77    15    14    1
    78    48    46   ar
    79    36    37    1
    80    28    27    1
    81    37    38    1
    82    34    35   ar
    83    26    27    1
    84    47    46   ar
    85    30    31    1
    86    30    27    1
    87    14    11    1
    88    43    42    1
    89    39    38    2
    90    11    12    1
    91    11    10    1
    92    31    33   ar
    93    38    41   am
    94    46    45    1
    95     8     7    2
    96    41    42    1
    97    12    13    2
    98    10     3   am
    99    35    33   ar
   100    42    45    1
   101     4     3    2
   102     5     6    1
   103     5     2    1
   104     7     9   am
   105     7     6    1
   106     3     2    1
   107     2     1    1
   108    25    23   am
   109    21    20    2
   110    22    23    1
   111    22    19    1
   112    23    24    2
   113    18    19    1
   114    20    19    1
