@<TRIPOS>MOLECULE
tmp/1j32A00.pdb
 142 133 0 0 0
SMALL
GASTEIGER

@<TRIPOS>ATOM
      1  N         67.3140  103.7140   95.0270 N.3    38  GLY38      -0.1225
      2  CA        68.5290  103.7550   95.8230 C.3    38  GLY38       0.1811
      3  C         68.6660  105.0870   96.5380 C.2    38  GLY38       0.2280
      4  O         69.7710  105.5250   96.8620 O.2    38  GLY38      -0.2866
      5  N         79.3920  114.4040   95.5920 N.3    98  GLY98      -0.1210
      6  CA        78.8550  113.1780   96.1380 C.3    98  GLY98       0.1956
      7  C         79.9830  112.2870   96.6180 C.2    98  GLY98       0.2612
      8  O         81.1540  112.5420   96.3240 O.2    98  GLY98      -0.2717
      9  N         79.6370  111.2520   97.3760 N.am   99  GLY99      -0.1942
     10  CA        80.6450  110.3280   97.8470 C.3    99  GLY99       0.2014
     11  C         81.2300  109.5650   96.6650 C.2    99  GLY99       0.2638
     12  O         82.3120  108.9960   96.7620 O.2    99  GLY99      -0.2714
     13  N         80.5270  109.5570   95.5350 N.am  100  LYS100     -0.1977
     14  CA        81.0350  108.8430   94.3650 C.3   100  LYS100      0.1596
     15  C         82.3250  109.4630   93.8370 C.2   100  LYS100      0.2287
     16  O         83.2650  108.7440   93.5090 O.2   100  LYS100     -0.2864
     17  CB        79.9940  108.7970   93.2430 C.3   100  LYS100      0.0298
     18  CG        80.4970  108.0300   92.0200 C.3   100  LYS100      0.0038
     19  CD        79.4020  107.7680   90.9940 C.3   100  LYS100      0.0206
     20  CE        78.4530  106.6890   91.4640 C.3   100  LYS100      0.1093
     21  NZ        77.4870  106.3390   90.4100 N.3   100  LYS100     -0.1314
     22  N         85.2840  108.6630   96.1000 N.3   103  ILE103     -0.1245
     23  CA        85.8500  107.3490   95.8260 C.3   103  ILE103      0.1561
     24  C         86.6510  107.3890   94.5240 C.2   103  ILE103      0.2260
     25  O         87.7460  106.8390   94.4370 O.2   103  ILE103     -0.2867
     26  CB        84.7300  106.2990   95.6950 C.3   103  ILE103      0.0252
     27  CG1       83.9030  106.2750   96.9850 C.3   103  ILE103      0.0019
     28  CG2       85.3260  104.9090   95.4200 C.3   103  ILE103      0.0019
     29  CD1       82.6530  105.4140   96.8990 C.3   103  ILE103      0.0001
     30  N         78.5780   97.6120   95.8720 N.3   124  TRP124     -0.1241
     31  CA        77.8750   98.7440   95.2690 C.3   124  TRP124      0.1605
     32  C         78.3110   98.6100   93.8100 C.2   124  TRP124      0.2264
     33  O         79.4820   98.3680   93.5390 O.2   124  TRP124     -0.2867
     34  CB        78.3920  100.0510   95.8860 C.3   124  TRP124      0.0550
     35  CG        77.6650  101.3030   95.4770 C.ar  124  TRP124      0.0003
     36  CD1       76.3150  101.4840   95.4120 C.ar  124  TRP124      0.0946
     37  CD2       78.2560  102.5710   95.1570 C.ar  124  TRP124      0.0152
     38  NE1       76.0260  102.7850   95.0760 N.ar  124  TRP124     -0.2442
     39  CE2       77.1990  103.4750   94.9150 C.ar  124  TRP124      0.0810
     40  CE3       79.5770  103.0300   95.0570 C.ar  124  TRP124      0.0012
     41  CZ2       77.4180  104.8190   94.5780 C.ar  124  TRP124      0.0191
     42  CZ3       79.7990  104.3730   94.7190 C.ar  124  TRP124      0.0001
     43  CH2       78.7230  105.2470   94.4850 C.ar  124  TRP124      0.0015
     44  N         81.8570  100.2740   92.4250 N.3   127  TYR127     -0.1241
     45  CA        83.2010   99.9270   92.9130 C.3   127  TYR127      0.1605
     46  C         84.1340   99.2810   91.8810 C.2   127  TYR127      0.2264
     47  O         85.2040   99.8090   91.5950 O.2   127  TYR127     -0.2867
     48  CB        83.1430   99.0200   94.1460 C.3   127  TYR127      0.0534
     49  CG        82.5740   99.6470   95.4030 C.ar  127  TYR127     -0.0201
     50  CD1       82.8310  100.9810   95.7360 C.ar  127  TYR127     -0.0009
     51  CD2       81.8230   98.8810   96.2930 C.ar  127  TYR127     -0.0009
     52  CE1       82.3500  101.5260   96.9280 C.ar  127  TYR127      0.0417
     53  CE2       81.3430   99.4150   97.4800 C.ar  127  TYR127      0.0417
     54  CZ        81.6070  100.7320   97.7920 C.ar  127  TYR127      0.1957
     55  OH        81.1110  101.2400   98.9670 O.3   127  TYR127     -0.2866
     56  N         82.6560   98.9490  102.9580 N.3   170  ASN170     -0.1240
     57  CA        81.3870   99.6600  103.0430 C.3   170  ASN170      0.1653
     58  C         80.4530   99.1480  104.1500 C.2   170  ASN170      0.2266
     59  O         80.0030   98.0020  104.1060 O.2   170  ASN170     -0.2867
     60  CB        80.6980   99.5490  101.6740 C.3   170  ASN170      0.1155
     61  CG        79.3110  100.1650  101.6490 C.2   170  ASN170      0.2627
     62  OD1       78.4160   99.6560  100.9780 O.2   170  ASN170     -0.2716
     63  ND2       79.1310  101.2680  102.3590 N.am  170  ASN170     -0.0877
     64  N         75.2950   98.7030  101.0470 N.3   174  ASN174     -0.1240
     65  CA        74.3470   98.7750   99.9340 C.3   174  ASN174      0.1653
     66  C         74.9920   97.6380   99.1410 C.2   174  ASN174      0.2266
     67  O         76.1970   97.6850   98.8770 O.2   174  ASN174     -0.2867
     68  CB        74.4620  100.0890   99.1430 C.3   174  ASN174      0.1155
     69  CG        73.5450  100.1190   97.9110 C.2   174  ASN174      0.2627
     70  OD1       72.8690   99.1310   97.5920 O.2   174  ASN174     -0.2716
     71  ND2       73.5220  101.2510   97.2130 N.am  174  ASN174     -0.0877
     72  N         83.7750  103.4280  103.1360 N.3   202  ASP202     -0.1239
     73  CA        82.5650  104.0340  102.5860 C.3   202  ASP202      0.1674
     74  C         81.5260  104.0340  103.7070 C.2   202  ASP202      0.2266
     75  O         80.8480  103.0320  103.9440 O.2   202  ASP202     -0.2867
     76  CB        82.0490  103.2150  101.3970 C.3   202  ASP202      0.1410
     77  CG        80.9960  103.9540  100.5940 C.2   202  ASP202      0.3668
     78  OD1       80.3370  104.8500  101.1650 O.co2 202  ASP202     -0.2456
     79  OD2       80.8210  103.6400   99.3970 O.co2 202  ASP202     -0.2456
     80  N         78.8250  106.2220  103.9980 N.3   204  ILE204     -0.1231
     81  CA        77.6470  107.0010  103.6460 C.3   204  ILE204      0.1692
     82  C         76.3580  106.7130  104.4350 C.2   204  ILE204      0.2592
     83  O         75.5610  107.6290  104.6660 O.2   204  ILE204     -0.2718
     84  CB        77.3450  106.8820  102.1270 C.3   204  ILE204      0.0266
     85  CG1       76.3350  107.9500  101.7100 C.3   204  ILE204      0.0019
     86  CG2       76.8160  105.4950  101.7920 C.3   204  ILE204      0.0020
     87  CD1       76.9770  109.2500  101.2700 C.3   204  ILE204      0.0001
     88  N         76.1550  105.4650  104.8580 N.am  205  TYR205     -0.1976
     89  CA        74.9420  105.0910  105.5990 C.3   205  TYR205      0.1639
     90  C         75.0950  105.0870  107.1210 C.2   205  TYR205      0.2290
     91  O         74.1990  104.6310  107.8380 O.2   205  TYR205     -0.2864
     92  CB        74.4580  103.7030  105.1490 C.3   205  TYR205      0.0560
     93  CG        73.9920  103.6530  103.7140 C.ar  205  TYR205     -0.0198
     94  CD1       72.7630  104.1930  103.3420 C.ar  205  TYR205     -0.0009
     95  CD2       74.7970  103.1000  102.7180 C.ar  205  TYR205     -0.0009
     96  CE1       72.3440  104.1880  102.0100 C.ar  205  TYR205      0.0417
     97  CE2       74.3910  103.0950  101.3790 C.ar  205  TYR205      0.0417
     98  CZ        73.1630  103.6440  101.0360 C.ar  205  TYR205      0.1957
     99  OH        72.7620  103.6720   99.7190 O.3   205  TYR205     -0.2866
    100  N         79.2180  111.4260  102.5220 N.3   234  GLY234     -0.1225
    101  CA        78.5530  112.5930  101.9740 C.3   234  GLY234      0.1811
    102  C         77.2190  112.8520  102.6270 C.2   234  GLY234      0.2280
    103  O         76.8870  112.2230  103.6310 O.2   234  GLY234     -0.2866
    104  N         74.1550  112.8210  100.8010 N.3   236  ALA236     -0.1231
    105  CA        73.0940  112.1620  100.0500 C.3   236  ALA236      0.1694
    106  C         72.0390  111.3690  100.8290 C.2   236  ALA236      0.2591
    107  O         70.8480  111.6520  100.7270 O.2   236  ALA236     -0.2718
    108  CB        73.7170  111.2610   98.9720 C.3   236  ALA236      0.0304
    109  N         72.4710  110.3830  101.6040 N.am  237  LYS237     -0.1980
    110  CA        71.5380  109.5210  102.3240 C.3   237  LYS237      0.1596
    111  C         70.9880  110.0380  103.6540 C.2   237  LYS237      0.2287
    112  O         69.7990  109.8880  103.9390 O.2   237  LYS237     -0.2864
    113  CB        72.1800  108.1380  102.5190 C.3   237  LYS237      0.0298
    114  CG        72.1690  107.2170  101.2700 C.3   237  LYS237      0.0038
    115  CD        72.3330  107.9530   99.9420 C.3   237  LYS237      0.0206
    116  CE        72.5840  107.0050   98.7530 C.3   237  LYS237      0.1093
    117  NZ        73.7630  106.4710   98.8890 N.3   237  LYS237     -0.1314
    118  N         70.4770  113.3370   97.5280 N.3   242  THR242     -0.1218
    119  CA        71.0910  112.5970   96.4330 C.3   242  THR242      0.1862
    120  C         71.3140  113.4330   95.1800 C.2   242  THR242      0.2287
    121  O         72.3330  113.2880   94.5120 O.2   242  THR242     -0.2866
    122  CB        70.2620  111.3500   96.0650 C.3   242  THR242      0.1770
    123  OG1       68.9300  111.7440   95.7170 O.3   242  THR242     -0.2211
    124  CG2       70.2120  110.3930   97.2350 C.3   242  THR242      0.0375
    125  N         74.6010  116.3020   94.9870 N.3   245  ARG245     -0.1231
    126  CA        75.9510  115.9160   94.5830 C.3   245  ARG245      0.1694
    127  C         76.9930  116.6120   95.4540 C.2   245  ARG245      0.2591
    128  O         77.8610  117.3320   94.9540 O.2   245  ARG245     -0.2718
    129  CB        76.2100  116.2510   93.1030 C.3   245  ARG245      0.0321
    130  CG        75.0950  115.8310   92.1330 C.3   245  ARG245      0.0489
    131  CD        74.7050  114.3630   92.3090 C.3   245  ARG245      0.2205
    132  NE        75.8770  113.4930   92.2680 N.pl3 245  ARG245     -0.0865
    133  CZ        76.0990  112.5090   93.1300 C.cat 245  ARG245      0.5346
    134  NH1       77.1970  111.7700   93.0260 N.pl3 245  ARG245      0.1354
    135  NH2       75.2220  112.2650   94.0960 N.pl3 245  ARG245      0.1354
    136  N         76.8910  116.4040   96.7620 N.am  246  VAL246     -0.1980
    137  CA        77.8390  116.9790   97.7060 C.3   246  VAL246      0.1595
    138  C         78.2940  115.8750   98.6540 C.2   246  VAL246      0.2287
    139  O         77.4860  115.3040   99.3900 O.2   246  VAL246     -0.2864
    140  CB        77.2120  118.1230   98.5350 C.3   246  VAL246      0.0276
    141  CG1       78.2570  118.7020   99.4830 C.3   246  VAL246      0.0022
    142  CG2       76.6840  119.2150   97.6200 C.3   246  VAL246      0.0022
@<TRIPOS>BOND
     1    21    20    1
     2    19    20    1
     3    19    18    1
     4    47    46    2
     5    46    45    1
     6    18    17    1
     7   130   131    1
     8   130   129    1
     9   132   131    1
    10   132   133    2
    11    44    45    1
    12    45    48    1
    13   134   133    1
    14   129   126    1
    15   133   135    1
    16    17    14    1
    17    16    15    2
    18    33    32    2
    19    32    31    1
    20    15    14    1
    21    48    49    1
    22    14    13    1
    23    25    24    2
    24    43    41   ar
    25    43    42   ar
    26   121   120    2
    27    24    23    1
    28    41    39   ar
    29   126   125    1
    30   126   127    1
    31    42    40   ar
    32    39    38   ar
    33    39    37   ar
    34   128   127    2
    35     1     2    1
    36    40    37   ar
    37    38    36   ar
    38    37    35   ar
    39   120   119    1
    40    31    30    1
    41    31    34    1
    42    49    50   ar
    43    49    51   ar
    44    36    35   ar
    45    28    26    1
    46   127   136   am
    47    35    34    1
    48    13    11   am
    49     5     6    1
    50    26    23    1
    51    26    27    1
    52   123   122    1
    53    50    52   ar
    54     2     3    1
    55    23    22    1
    56   122   119    1
    57   122   124    1
    58     6     7    1
    59    51    53   ar
    60     8     7    2
    61   119   118    1
    62     3     4    2
    63     7     9   am
    64    11    12    2
    65    11    10    1
    66   136   137    1
    67    29    27    1
    68    52    54   ar
    69    71    69   am
    70     9    10    1
    71    53    54   ar
    72    70    69    2
    73   142   140    1
    74   137   140    1
    75   137   138    1
    76    54    55    1
    77    69    68    1
    78   140   141    1
    79   138   139    2
    80   116   117    1
    81   116   115    1
    82    67    66    2
    83   108   105    1
    84    66    65    1
    85    68    65    1
    86    79    77   ar
    87    99    98    1
    88    65    64    1
    89   115   114    1
    90   105   104    1
    91   105   106    1
    92    77    78   ar
    93    77    76    1
    94   107   106    2
    95   106   109   am
    96    62    61    2
    97    98    97   ar
    98    98    96   ar
    99   114   113    1
   100    87    85    1
   101    97    95   ar
   102    76    73    1
   103   109   110    1
   104    61    60    1
   105    61    63   am
   106    60    57    1
   107    85    84    1
   108    86    84    1
   109   101   100    1
   110   101   102    1
   111    96    94   ar
   112    84    81    1
   113   110   113    1
   114   110   111    1
   115    73    72    1
   116    73    74    1
   117   102   103    2
   118    95    93   ar
   119    56    57    1
   120    57    58    1
   121    94    93   ar
   122    81    80    1
   123    81    82    1
   124   111   112    2
   125    74    75    2
   126    93    92    1
   127    59    58    2
   128    82    83    2
   129    82    88   am
   130    88    89    1
   131    92    89    1
   132    89    90    1
   133    90    91    2
