@<TRIPOS>MOLECULE
tmp/1j37A00.pdb
 157 152 0 0 0
SMALL
GASTEIGER

@<TRIPOS>ATOM
      1  N         22.8380    0.4570   19.3380 N.3   243  GLN243     -0.1231
      2  CA        21.9020    0.3880   20.4510 C.3   243  GLN243      0.1698
      3  C         22.2240   -0.7710   21.4210 C.2   243  GLN243      0.2592
      4  O         21.8150   -0.7430   22.5790 O.2   243  GLN243     -0.2718
      5  CB        20.4790    0.2220   19.9240 C.3   243  GLN243      0.0381
      6  CG        20.2350   -1.0980   19.2120 C.3   243  GLN243      0.0905
      7  CD        19.0300   -1.0320   18.2990 C.2   243  GLN243      0.2608
      8  OE1       19.0380   -0.2800   17.3310 O.2   243  GLN243     -0.2717
      9  NE2       17.9820   -1.8010   18.6120 N.am  243  GLN243     -0.0878
     10  N         22.9180   -1.7960   20.9420 N.am  244  GLN244     -0.1979
     11  CA        23.2670   -2.9390   21.7790 C.3   244  GLN244      0.1601
     12  C         24.6630   -3.3950   21.3980 C.2   244  GLN244      0.2287
     13  O         25.0220   -3.3420   20.2310 O.2   244  GLN244     -0.2864
     14  CB        22.2560   -4.0800   21.6010 C.3   244  GLN244      0.0394
     15  CG        20.9900   -3.9200   22.4640 C.3   244  GLN244      0.0908
     16  CD        20.0650   -5.1510   22.4330 C.2   244  GLN244      0.2608
     17  OE1       19.0290   -5.1830   23.1200 O.2   244  GLN244     -0.2717
     18  NE2       20.4370   -6.1640   21.6400 N.am  244  GLN244     -0.0878
     19  N         11.6060   -6.1140    9.4060 N.3   315  HIS315     -0.1226
     20  CA        11.8930   -5.7400   10.7770 C.3   315  HIS315      0.1752
     21  C         10.7740   -6.4150   11.5650 C.2   315  HIS315      0.2596
     22  O          9.6460   -5.9690   11.5410 O.2   315  HIS315     -0.2718
     23  CB        11.8370   -4.2200   10.9550 C.3   315  HIS315      0.0759
     24  CG        12.2820   -3.7710   12.3090 C.ar  315  HIS315      0.0818
     25  ND1       13.6110   -3.7150   12.6720 N.ar  315  HIS315     -0.2268
     26  CD2       11.5740   -3.4390   13.4150 C.ar  315  HIS315      0.1154
     27  CE1       13.7020   -3.3670   13.9430 C.ar  315  HIS315      0.1986
     28  NE2       12.4830   -3.1950   14.4180 N.ar  315  HIS315     -0.2212
     29  N         11.0960   -7.5130   12.2330 N.am  316  ALA316     -0.1966
     30  CA        10.1310   -8.2940   12.9970 C.3   316  ALA316      0.1728
     31  C          8.9850   -7.4840   13.5800 C.2   316  ALA316      0.2616
     32  O          9.1740   -6.3760   14.0690 O.2   316  ALA316     -0.2715
     33  CB        10.8480   -9.0620   14.1250 C.3   316  ALA316      0.0334
     34  N          7.7940   -8.0760   13.5520 N.am  317  SER317     -0.1950
     35  CA         6.5970   -7.4370   14.0810 C.3   317  SER317      0.1924
     36  C          5.4940   -8.4680   14.3160 C.2   317  SER317      0.2314
     37  O          5.5270   -9.5690   13.7420 O.2   317  SER317     -0.2863
     38  CB         6.0980   -6.3670   13.1070 C.3   317  SER317      0.2116
     39  OG         5.8300   -6.9140   11.8320 O.3   317  SER317     -0.2180
     40  N         14.1680  -12.3020   20.5420 N.3   342  THR342     -0.1218
     41  CA        13.2430  -11.6120   19.6590 C.3   342  THR342      0.1862
     42  C         11.9180  -12.3830   19.4990 C.2   342  THR342      0.2287
     43  O         10.8200  -11.8080   19.6320 O.2   342  THR342     -0.2866
     44  CB        13.9020  -11.4040   18.2920 C.3   342  THR342      0.1770
     45  OG1       15.1490  -10.7200   18.4830 O.3   342  THR342     -0.2211
     46  CG2       12.9950  -10.5820   17.3670 C.3   342  THR342      0.0375
     47  N         10.1270  -11.8350   22.3660 N.3   345  HIS345     -0.1226
     48  CA         9.7100  -10.4410   22.3970 C.3   345  HIS345      0.1752
     49  C          8.4210  -10.3140   21.6120 C.2   345  HIS345      0.2595
     50  O          7.4390   -9.7310   22.0870 O.2   345  HIS345     -0.2718
     51  CB        10.7400   -9.5160   21.7580 C.3   345  HIS345      0.0759
     52  CG        10.3110   -8.0810   21.7500 C.ar  345  HIS345      0.0818
     53  ND1       10.5250   -7.2350   22.8160 N.ar  345  HIS345     -0.2268
     54  CD2        9.5900   -7.3700   20.8470 C.ar  345  HIS345      0.1154
     55  CE1        9.9540   -6.0680   22.5730 C.ar  345  HIS345      0.1986
     56  NE2        9.3780   -6.1250   21.3860 N.ar  345  HIS345     -0.2212
     57  N          8.4380  -10.8540   20.3940 N.am  346  GLU346     -0.1979
     58  CA         7.2610  -10.7960   19.5460 C.3   346  GLU346      0.1602
     59  C          6.0820  -11.5320   20.1620 C.2   346  GLU346      0.2287
     60  O          4.9630  -11.0170   20.1330 O.2   346  GLU346     -0.2864
     61  CB         7.5730  -11.3660   18.1700 C.3   346  GLU346      0.0415
     62  CG         8.6070  -10.5730   17.4130 C.3   346  GLU346      0.1163
     63  CD         8.2030   -9.1320   17.2080 C.2   346  GLU346      0.3649
     64  OE1        7.1130   -8.8930   16.6630 O.co2 346  GLU346     -0.2457
     65  OE2        8.9750   -8.2320   17.5860 O.co2 346  GLU346     -0.2457
     66  N          3.9780   -9.7060   22.4010 N.3   349  HIS349     -0.1241
     67  CA         2.9460   -8.8920   21.7990 C.3   349  HIS349      0.1621
     68  C          1.7330   -9.7960   21.5840 C.2   349  HIS349      0.2264
     69  O          0.6250   -9.4970   22.0580 O.2   349  HIS349     -0.2867
     70  CB         3.4060   -8.3100   20.4620 C.3   349  HIS349      0.0745
     71  CG         4.4380   -7.2270   20.5820 C.ar  349  HIS349      0.0817
     72  ND1        4.2740   -6.1290   21.3990 N.ar  349  HIS349     -0.2268
     73  CD2        5.6120   -7.0340   19.9320 C.ar  349  HIS349      0.1154
     74  CE1        5.2990   -5.3070   21.2440 C.ar  349  HIS349      0.1986
     75  NE2        6.1250   -5.8310   20.3580 N.ar  349  HIS349     -0.2212
     76  N          5.8240   -3.5100   24.8140 N.3   373  GLU373     -0.1245
     77  CA         7.1840   -3.9340   24.5010 C.3   373  GLU373      0.1567
     78  C          7.8870   -4.6760   25.6390 C.2   373  GLU373      0.2260
     79  O          9.0030   -5.1360   25.4460 O.2   373  GLU373     -0.2867
     80  CB         8.0580   -2.7350   24.1240 C.3   373  GLU373      0.0388
     81  CG         7.5310   -1.8650   23.0240 C.3   373  GLU373      0.1160
     82  CD         7.3130   -2.6040   21.7410 C.2   373  GLU373      0.3649
     83  OE1        8.1140   -3.5120   21.4290 O.co2 373  GLU373     -0.2457
     84  OE2        6.3480   -2.2610   21.0300 O.co2 373  GLU373     -0.2457
     85  N          9.8260   -9.5150   26.8760 N.3   377  ASP377     -0.1239
     86  CA        11.2180   -9.3520   27.2720 C.3   377  ASP377      0.1674
     87  C         11.4690   -9.9560   28.6540 C.2   377  ASP377      0.2266
     88  O         12.5830  -10.3900   28.9740 O.2   377  ASP377     -0.2867
     89  CB        11.6120   -7.8800   27.2680 C.3   377  ASP377      0.1410
     90  CG        11.9210   -7.3690   25.8760 C.2   377  ASP377      0.3668
     91  OD1       11.9480   -8.1960   24.9430 O.co2 377  ASP377     -0.2456
     92  OD2       12.1430   -6.1500   25.7200 O.co2 377  ASP377     -0.2456
     93  N         21.2900    0.3330   26.1310 N.3   419  PHE419     -0.1241
     94  CA        20.1280    0.7150   25.3380 C.3   419  PHE419      0.1605
     95  C         19.3760    1.9330   25.8880 C.2   419  PHE419      0.2264
     96  O         18.8430    2.7420   25.1270 O.2   419  PHE419     -0.2867
     97  CB        19.1730   -0.4780   25.2700 C.3   419  PHE419      0.0534
     98  CG        18.0170   -0.2770   24.3560 C.ar  419  PHE419     -0.0203
     99  CD1       18.1690   -0.4160   22.9870 C.ar  419  PHE419     -0.0042
    100  CD2       16.7730    0.0310   24.8580 C.ar  419  PHE419     -0.0042
    101  CE1       17.1180   -0.2630   22.1210 C.ar  419  PHE419     -0.0003
    102  CE2       15.6950    0.1900   24.0010 C.ar  419  PHE419     -0.0003
    103  CZ        15.8800    0.0380   22.6140 C.ar  419  PHE419     -0.0000
    104  N         17.5840    4.5050   10.9490 N.3   473  LYS473     -0.1245
    105  CA        16.9430    3.7650   12.0200 C.3   473  LYS473      0.1561
    106  C         15.4970    3.5090   11.6130 C.2   473  LYS473      0.2260
    107  O         14.6740    4.4270   11.5410 O.2   473  LYS473     -0.2867
    108  CB        16.9910    4.5730   13.3090 C.3   473  LYS473      0.0271
    109  CG        16.1370    4.0260   14.4420 C.3   473  LYS473      0.0035
    110  CD        16.7940    2.8970   15.2000 C.3   473  LYS473      0.0206
    111  CE        16.5240    1.5400   14.5920 C.3   473  LYS473      0.1093
    112  NZ        16.5470    0.4920   15.6590 N.3   473  LYS473     -0.1314
    113  N         12.6610    2.7110   12.7760 N.3   475  HIS475     -0.1241
    114  CA        11.5940    3.4510   13.4440 C.3   475  HIS475      0.1621
    115  C         11.5080    4.9310   13.0570 C.2   475  HIS475      0.2264
    116  O         10.4460    5.5390   13.1600 O.2   475  HIS475     -0.2867
    117  CB        11.7430    3.3260   14.9660 C.3   475  HIS475      0.0745
    118  CG        11.9280    1.9200   15.4370 C.ar  475  HIS475      0.0817
    119  ND1       12.9870    1.1380   15.0350 N.ar  475  HIS475     -0.2268
    120  CD2       11.1790    1.1460   16.2570 C.ar  475  HIS475      0.1154
    121  CE1       12.8800   -0.0610   15.5820 C.ar  475  HIS475      0.1986
    122  NE2       11.7910   -0.0810   16.3290 N.ar  475  HIS475     -0.2212
    123  N          9.5450    5.7440   19.7690 N.3   482  TYR482     -0.1241
    124  CA        10.6160    4.9680   20.3840 C.3   482  TYR482      0.1605
    125  C         10.7150    4.9740   21.9230 C.2   482  TYR482      0.2264
    126  O         11.3920    4.1240   22.5100 O.2   482  TYR482     -0.2867
    127  CB        11.9560    5.4290   19.7900 C.3   482  TYR482      0.0534
    128  CG        12.9440    4.3090   19.6760 C.ar  482  TYR482     -0.0201
    129  CD1       12.9140    3.4610   18.5670 C.ar  482  TYR482     -0.0009
    130  CD2       13.8120    4.0060   20.7330 C.ar  482  TYR482     -0.0009
    131  CE1       13.7020    2.3340   18.5030 C.ar  482  TYR482      0.0417
    132  CE2       14.6220    2.8580   20.6880 C.ar  482  TYR482      0.0417
    133  CZ        14.5490    2.0240   19.5650 C.ar  482  TYR482      0.1957
    134  OH        15.2650    0.8640   19.4920 O.3   482  TYR482     -0.2866
    135  N         10.3670    1.8690   24.1160 N.3   485  TYR485     -0.1241
    136  CA        11.4240    0.9210   24.4290 C.3   485  TYR485      0.1605
    137  C         12.1450    1.2830   25.7020 C.2   485  TYR485      0.2264
    138  O         12.4630    0.4010   26.5240 O.2   485  TYR485     -0.2867
    139  CB        12.4100    0.8270   23.2780 C.3   485  TYR485      0.0534
    140  CG        11.7560    0.3550   22.0180 C.ar  485  TYR485     -0.0201
    141  CD1       11.3720   -0.9700   21.8670 C.ar  485  TYR485     -0.0009
    142  CD2       11.4350    1.2560   21.0140 C.ar  485  TYR485     -0.0009
    143  CE1       10.6660   -1.3920   20.7250 C.ar  485  TYR485      0.0417
    144  CE2       10.7330    0.8630   19.8820 C.ar  485  TYR485      0.0417
    145  CZ        10.3460   -0.4610   19.7390 C.ar  485  TYR485      0.1957
    146  OH         9.6260   -0.8220   18.6280 O.3   485  TYR485     -0.2866
    147  N         12.5210   -1.2910   28.8510 N.3   489  PHE489     -0.1241
    148  CA        13.7430   -1.7530   29.5030 C.3   489  PHE489      0.1605
    149  C         13.8080   -1.4380   30.9950 C.2   489  PHE489      0.2264
    150  O         14.5710   -2.0610   31.7240 O.2   489  PHE489     -0.2867
    151  CB        14.9870   -1.2020   28.7820 C.3   489  PHE489      0.0534
    152  CG        15.3040   -1.9190   27.5070 C.ar  489  PHE489     -0.0203
    153  CD1       16.5830   -2.3760   27.2560 C.ar  489  PHE489     -0.0042
    154  CD2       14.3120   -2.1750   26.5660 C.ar  489  PHE489     -0.0042
    155  CE1       16.8850   -3.0800   26.0850 C.ar  489  PHE489     -0.0003
    156  CE2       14.6070   -2.8830   25.3880 C.ar  489  PHE489     -0.0003
    157  CZ        15.8940   -3.3290   25.1560 C.ar  489  PHE489     -0.0000
@<TRIPOS>BOND
     1    19    20    1
     2    20    23    1
     3    20    21    1
     4   104   105    1
     5    23    24    1
     6   107   106    2
     7    22    21    2
     8    21    29   am
     9   106   105    1
    10    39    38    1
    11   105   108    1
    12    29    30    1
    13    24    25   ar
    14    24    26   ar
    15    25    27   ar
    16   113   114    1
    17    30    31    1
    18    30    33    1
    19   115   116    2
    20   115   114    1
    21    38    35    1
    22   108   109    1
    23    26    28   ar
    24   114   117    1
    25    34    31   am
    26    34    35    1
    27    31    32    2
    28    37    36    2
    29    27    28   ar
    30    35    36    1
    31   109   110    1
    32   111   110    1
    33   111   112    1
    34   117   118    1
    35   119   118   ar
    36   119   121   ar
    37   118   120   ar
    38   121   122   ar
    39   120   122   ar
    40    64    63   ar
    41    63    62    1
    42    63    65   ar
    43     8     7    2
    44    46    44    1
    45    62    61    1
    46    61    58    1
    47    44    45    1
    48    44    41    1
    49     7     9   am
    50     7     6    1
    51   131   129   ar
    52   131   133   ar
    53   129   128   ar
    54   146   145    1
    55     6     5    1
    56     1     2    1
    57   134   133    1
    58    42    43    2
    59    42    41    1
    60    58    59    1
    61    58    57    1
    62   133   132   ar
    63    41    40    1
    64   128   127    1
    65   128   130   ar
    66   145   144   ar
    67   145   143   ar
    68   123   124    1
    69   127   124    1
    70   144   142   ar
    71     5     2    1
    72    73    75   ar
    73    73    71   ar
    74    60    59    2
    75    13    12    2
    76    75    74   ar
    77   124   125    1
    78    57    49   am
    79     2     3    1
    80    70    71    1
    81    70    67    1
    82    71    72   ar
    83   132   130   ar
    84   143   141   ar
    85    54    56   ar
    86    54    52   ar
    87    10     3   am
    88    10    11    1
    89   142   140   ar
    90    84    82   ar
    91    74    72   ar
    92    56    55   ar
    93    12    11    1
    94     3     4    2
    95    83    82   ar
    96    68    67    1
    97    68    69    2
    98    14    11    1
    99    14    15    1
   100    49    50    2
   101    49    48    1
   102    18    16   am
   103    82    81    1
   104    52    51    1
   105    52    53   ar
   106    51    48    1
   107    67    66    1
   108   141   140   ar
   109   125   126    2
   110   140   139    1
   111   101   103   ar
   112   101    99   ar
   113    47    48    1
   114    16    15    1
   115    16    17    2
   116    55    53   ar
   117   103   102   ar
   118    99    98   ar
   119    81    80    1
   120   139   136    1
   121   102   100   ar
   122   135   136    1
   123    80    77    1
   124    98   100   ar
   125    98    97    1
   126   136   137    1
   127    77    76    1
   128    77    78    1
   129    91    90   ar
   130    96    95    2
   131   157   156   ar
   132   157   155   ar
   133    97    94    1
   134    94    95    1
   135    94    93    1
   136   156   154   ar
   137    79    78    2
   138   137   138    2
   139    92    90   ar
   140    90    89    1
   141   155   153   ar
   142   154   152   ar
   143    85    86    1
   144   153   152   ar
   145    89    86    1
   146    86    87    1
   147   152   151    1
   148    87    88    2
   149   151   148    1
   150   147   148    1
   151   148   149    1
   152   149   150    2
