@<TRIPOS>MOLECULE
tmp/1j3iB00.pdb
 175 170 0 0 0
SMALL
GASTEIGER

@<TRIPOS>ATOM
      1  N         23.9280  -28.4050   14.1410 N.3    13  ILE13      -0.1231
      2  CA        24.6650  -27.2970   13.5720 C.3    13  ILE13       0.1692
      3  C         24.6430  -27.4540   12.0630 C.2    13  ILE13       0.2592
      4  O         24.9990  -28.5130   11.5390 O.2    13  ILE13      -0.2718
      5  CB        26.1270  -27.2430   14.0690 C.3    13  ILE13       0.0266
      6  CG1       26.7940  -25.9760   13.5290 C.3    13  ILE13       0.0019
      7  CG2       26.8880  -28.4860   13.6290 C.3    13  ILE13       0.0020
      8  CD1       28.1370  -25.6700   14.1330 C.3    13  ILE13       0.0001
      9  N         24.2050  -26.4070   11.3680 N.am   14  CYS14      -0.1956
     10  CA        24.1330  -26.4320    9.9100 C.3    14  CYS14       0.1843
     11  C         24.4090  -25.0850    9.2680 C.2    14  CYS14       0.2625
     12  O         24.6920  -24.1010    9.9450 O.2    14  CYS14      -0.2714
     13  CB        22.7540  -26.8940    9.4500 C.3    14  CYS14       0.0997
     14  SG        21.4250  -25.7790    9.9090 S.3    14  CYS14      -0.0797
     15  N         24.2950  -25.0760    7.9440 N.am   15  ALA15      -0.1977
     16  CA        24.5090  -23.9050    7.1050 C.3    15  ALA15       0.1597
     17  C         23.5040  -23.9680    5.9520 C.2    15  ALA15       0.2287
     18  O         23.4560  -24.9550    5.2230 O.2    15  ALA15      -0.2864
     19  CB        25.9290  -23.9070    6.5650 C.3    15  ALA15       0.0319
     20  N         27.3330  -32.3140   -2.4620 N.3    44  VAL44      -0.1231
     21  CA        28.2870  -31.3390   -1.9320 C.3    44  VAL44       0.1692
     22  C         27.5780  -30.0620   -1.4710 C.2    44  VAL44       0.2591
     23  O         26.3490  -29.9420   -1.5820 O.2    44  VAL44      -0.2718
     24  CB        29.3810  -30.9660   -2.9770 C.3    44  VAL44       0.0266
     25  CG1       30.5220  -31.9730   -2.9240 C.3    44  VAL44       0.0020
     26  CG2       28.7810  -30.9240   -4.3710 C.3    44  VAL44       0.0020
     27  N         28.3540  -29.1200   -0.9360 N.am   45  LEU45      -0.1980
     28  CA        27.8000  -27.8520   -0.4610 C.3    45  LEU45       0.1596
     29  C         27.3510  -27.0310   -1.6700 C.2    45  LEU45       0.2287
     30  O         28.0750  -26.9300   -2.6700 O.2    45  LEU45      -0.2864
     31  CB        28.8520  -27.0830    0.3460 C.3    45  LEU45       0.0297
     32  CG        29.3590  -27.8640    1.5630 C.3    45  LEU45       0.0022
     33  CD1       30.5310  -27.1350    2.1940 C.3    45  LEU45       0.0001
     34  CD2       28.2250  -28.0610    2.5650 C.3    45  LEU45       0.0001
     35  N         27.4090  -24.0990   -2.2270 N.3    47  TRP47      -0.1227
     36  CA        28.3440  -23.0110   -2.5040 C.3    47  TRP47       0.1737
     37  C         29.8020  -23.3780   -2.6280 C.2    47  TRP47       0.2595
     38  O         30.6830  -22.4990   -2.6320 O.2    47  TRP47      -0.2718
     39  CB        28.2120  -21.9440   -1.4160 C.3    47  TRP47       0.0564
     40  CG        28.3410  -22.5160   -0.0440 C.ar   47  TRP47       0.0003
     41  CD1       29.4940  -22.7860    0.6380 C.ar   47  TRP47       0.0946
     42  CD2       27.2670  -22.9370    0.7970 C.ar   47  TRP47       0.0152
     43  NE1       29.2000  -23.3510    1.8590 N.ar   47  TRP47      -0.2442
     44  CE2       27.8390  -23.4590    1.9780 C.ar   47  TRP47       0.0810
     45  CE3       25.8740  -22.9260    0.6670 C.ar   47  TRP47       0.0012
     46  CZ2       27.0630  -23.9650    3.0250 C.ar   47  TRP47       0.0191
     47  CZ3       25.1050  -23.4240    1.7070 C.ar   47  TRP47       0.0001
     48  CH2       25.7000  -23.9390    2.8710 C.ar   47  TRP47       0.0015
     49  N         30.0510  -24.6750   -2.7090 N.am   48  LYS48      -0.1966
     50  CA        31.3950  -25.2060   -2.8290 C.3    48  LYS48       0.1728
     51  C         32.0280  -25.1610   -1.4490 C.2    48  LYS48       0.2616
     52  O         32.3030  -26.2050   -0.8490 O.2    48  LYS48      -0.2715
     53  CB        32.2220  -24.4100   -3.8650 C.3    48  LYS48       0.0311
     54  CG        32.0460  -24.9220   -5.3240 C.3    48  LYS48       0.0038
     55  CD        32.2510  -23.8330   -6.4010 C.3    48  LYS48       0.0206
     56  CE        33.3320  -24.1960   -7.4340 C.3    48  LYS48       0.1093
     57  NZ        34.6300  -23.5030   -7.1530 N.3    48  LYS48      -0.1314
     58  N         32.2120  -23.9550   -0.9240 N.am   49  CYS49      -0.1968
     59  CA        32.8110  -23.7870    0.3970 C.3    49  CYS49       0.1712
     60  C         32.7770  -22.3440    0.8870 C.2    49  CYS49       0.2296
     61  O         32.5990  -21.4080    0.1040 O.2    49  CYS49      -0.2864
     62  CB        34.2600  -24.2720    0.3850 C.3    49  CYS49       0.0983
     63  SG        35.3260  -23.2580   -0.6640 S.3    49  CYS49      -0.0798
     64  N         32.4010  -19.8240    7.5510 N.3    53  ASP53      -0.1225
     65  CA        31.4540  -20.7660    8.1230 C.3    53  ASP53       0.1805
     66  C         32.1810  -22.0150    8.6200 C.2    53  ASP53       0.2597
     67  O         31.8630  -22.5410    9.6830 O.2    53  ASP53      -0.2718
     68  CB        30.4140  -21.1820    7.1050 C.3    53  ASP53       0.1424
     69  CG        29.5560  -22.3040    7.6130 C.2    53  ASP53       0.3668
     70  OD1       28.8620  -22.1040    8.6390 O.co2  53  ASP53      -0.2456
     71  OD2       29.5870  -23.3850    6.9870 O.co2  53  ASP53      -0.2456
     72  N         33.1640  -22.4640    7.8450 N.am   54  MET54      -0.1979
     73  CA        33.9480  -23.6490    8.1890 C.3    54  MET54       0.1605
     74  C         34.6650  -23.4250    9.5090 C.2    54  MET54       0.2287
     75  O         34.6230  -24.2740   10.3890 O.2    54  MET54      -0.2864
     76  CB        34.9670  -23.9630    7.0800 C.3    54  MET54       0.0413
     77  CG        35.6840  -25.3160    7.2150 C.3    54  MET54       0.0598
     78  SD        34.5840  -26.7710    7.0830 S.3    54  MET54      -0.1393
     79  CE        33.9920  -26.6220    5.3590 C.3    54  MET54       0.0692
     80  N         33.8080  -21.5200   11.7650 N.3    56  TYR56      -0.1227
     81  CA        32.8130  -21.4550   12.8260 C.3    56  TYR56       0.1736
     82  C         32.4340  -22.8870   13.1750 C.2    56  TYR56       0.2595
     83  O         32.3280  -23.2450   14.3500 O.2    56  TYR56      -0.2718
     84  CB        31.5750  -20.6760   12.3710 C.3    56  TYR56       0.0548
     85  CG        30.4600  -20.6000   13.4010 C.ar   56  TYR56      -0.0200
     86  CD1       30.5000  -19.6660   14.4360 C.ar   56  TYR56      -0.0009
     87  CD2       29.3530  -21.4460   13.3190 C.ar   56  TYR56      -0.0009
     88  CE1       29.4590  -19.5640   15.3660 C.ar   56  TYR56       0.0417
     89  CE2       28.3140  -21.3600   14.2420 C.ar   56  TYR56       0.0417
     90  CZ        28.3740  -20.4120   15.2640 C.ar   56  TYR56       0.1957
     91  OH        27.3520  -20.3330   16.1810 O.3    56  TYR56      -0.2866
     92  N         32.2430  -23.7060   12.1460 N.am   57  PHE57      -0.1976
     93  CA        31.8800  -25.1070   12.3450 C.3    57  PHE57       0.1639
     94  C         32.8950  -25.8190   13.2390 C.2    57  PHE57       0.2290
     95  O         32.5290  -26.3860   14.2710 O.2    57  PHE57      -0.2864
     96  CB        31.8080  -25.8420   11.0090 C.3    57  PHE57       0.0560
     97  CG        31.5410  -27.3130   11.1480 C.ar   57  PHE57      -0.0200
     98  CD1       30.2710  -27.7750   11.5000 C.ar   57  PHE57      -0.0042
     99  CD2       32.5630  -28.2400   10.9430 C.ar   57  PHE57      -0.0042
    100  CE1       30.0170  -29.1450   11.6440 C.ar   57  PHE57      -0.0003
    101  CE2       32.3220  -29.6100   11.0830 C.ar   57  PHE57      -0.0003
    102  CZ        31.0480  -30.0610   11.4340 C.ar   57  PHE57      -0.0000
    103  N         27.3440  -37.5720    3.8070 N.3   103  SER103     -0.1217
    104  CA        28.0120  -36.4740    4.4840 C.3   103  SER103      0.1889
    105  C         29.4480  -36.8600    4.7670 C.2   103  SER103      0.2288
    106  O         30.3730  -36.0740    4.5520 O.2   103  SER103     -0.2866
    107  CB        27.3060  -36.1550    5.8000 C.3   103  SER103      0.2089
    108  OG        26.0060  -35.6490    5.5690 O.3   103  SER103     -0.2183
    109  N         31.4440  -36.6200    1.5460 N.3   106  SER106     -0.1202
    110  CA        31.7420  -35.2560    1.0980 C.3   106  SER106      0.2020
    111  C         32.9830  -34.6400    1.7410 C.2   106  SER106      0.2619
    112  O         33.6370  -33.7730    1.1560 O.2   106  SER106     -0.2717
    113  CB        30.5430  -34.3530    1.3780 C.3   106  SER106      0.2103
    114  OG        30.2940  -34.2730    2.7700 O.3   106  SER106     -0.2182
    115  N         33.3020  -35.0860    2.9480 N.am  107  ILE107     -0.1966
    116  CA        34.4590  -34.5710    3.6580 C.3   107  ILE107      0.1712
    117  C         35.7650  -35.0900    3.0460 C.2   107  ILE107      0.2458
    118  O         35.9270  -36.2950    2.8230 O.2   107  ILE107     -0.2730
    119  CB        34.3960  -34.9750    5.1450 C.3   107  ILE107      0.0289
    120  CG1       32.9890  -34.7110    5.6860 C.3   107  ILE107      0.0022
    121  CG2       35.4260  -34.1900    5.9470 C.3   107  ILE107      0.0023
    122  CD1       32.7710  -35.1920    7.1010 C.3   107  ILE107      0.0001
    123  N         36.7100  -34.1810    2.7450 N.am  108  PRO108     -0.2727
    124  CA        37.9900  -34.5910    2.1630 C.3   108  PRO108      0.1402
    125  C         38.7550  -35.5560    3.0730 C.2   108  PRO108      0.2269
    126  O         38.6590  -35.4850    4.3020 O.2   108  PRO108     -0.2865
    127  CB        38.7150  -33.2640    1.9680 C.3   108  PRO108      0.0296
    128  CG        37.6000  -32.3430    1.6330 C.3   108  PRO108      0.0237
    129  CD        36.5590  -32.7190    2.6710 C.3   108  PRO108      0.0939
    130  N         40.7070  -34.2500    5.9370 N.3   111  PHE111     -0.1241
    131  CA        39.9710  -33.9930    7.1720 C.3   111  PHE111      0.1605
    132  C         39.0780  -35.1190    7.7740 C.2   111  PHE111      0.2264
    133  O         38.2430  -34.8380    8.6240 O.2   111  PHE111     -0.2867
    134  CB        39.1060  -32.7100    6.9230 C.3   111  PHE111      0.0534
    135  CG        39.8510  -31.5430    6.2110 C.ar  111  PHE111     -0.0203
    136  CD1       40.9280  -30.8760    6.8150 C.ar  111  PHE111     -0.0042
    137  CD2       39.3840  -31.0460    4.9800 C.ar  111  PHE111     -0.0042
    138  CE1       41.5130  -29.7200    6.2070 C.ar  111  PHE111     -0.0003
    139  CE2       39.9690  -29.8880    4.3700 C.ar  111  PHE111     -0.0003
    140  CZ        41.0260  -29.2340    4.9940 C.ar  111  PHE111     -0.0000
    141  N         37.0830  -36.1220   11.6750 N.3   114  LEU114     -0.1245
    142  CA        37.2750  -34.8220   12.3300 C.3   114  LEU114      0.1561
    143  C         38.0900  -34.7590   13.5990 C.2   114  LEU114      0.2260
    144  O         37.6880  -35.2330   14.6410 O.2   114  LEU114     -0.2867
    145  CB        35.9060  -34.2090   12.5420 C.3   114  LEU114      0.0270
    146  CG        35.1420  -34.1860   11.2090 C.3   114  LEU114      0.0019
    147  CD1       33.6800  -34.4570   11.4690 C.3   114  LEU114      0.0001
    148  CD2       35.3760  -32.8720   10.4740 C.3   114  LEU114      0.0001
    149  N         25.7240  -33.1680   12.5960 N.3   159  ILE159     -0.1245
    150  CA        26.2010  -32.3210   11.5160 C.3   159  ILE159      0.1561
    151  C         25.7250  -32.6020   10.0940 C.2   159  ILE159      0.2260
    152  O         26.4360  -32.2880    9.1510 O.2   159  ILE159     -0.2867
    153  CB        27.7580  -32.2540   11.5230 C.3   159  ILE159      0.0252
    154  CG1       28.3770  -33.6170   11.1860 C.3   159  ILE159      0.0019
    155  CG2       28.2580  -31.8540   12.9120 C.3   159  ILE159      0.0019
    156  CD1       29.9220  -33.6530   11.2690 C.3   159  ILE159      0.0001
    157  N         19.1010  -34.7080    9.7010 N.3   165  TYR165     -0.1241
    158  CA        18.4510  -33.5740   10.3710 C.3   165  TYR165      0.1605
    159  C         16.9580  -33.8260   10.4600 C.2   165  TYR165      0.2264
    160  O         16.3710  -33.7890   11.5280 O.2   165  TYR165     -0.2867
    161  CB        18.6380  -32.2490    9.6050 C.3   165  TYR165      0.0534
    162  CG        20.0460  -31.7030    9.4940 C.ar  165  TYR165     -0.0201
    163  CD1       20.8940  -31.6440   10.6050 C.ar  165  TYR165     -0.0009
    164  CD2       20.5180  -31.1930    8.2820 C.ar  165  TYR165     -0.0009
    165  CE1       22.1800  -31.0860   10.5040 C.ar  165  TYR165      0.0417
    166  CE2       21.7980  -30.6370    8.1740 C.ar  165  TYR165      0.0417
    167  CZ        22.6200  -30.5880    9.2870 C.ar  165  TYR165      0.1957
    168  OH        23.8860  -30.0570    9.1810 O.3   165  TYR165     -0.2866
    169  N         23.6610  -21.2590   10.4240 N.3   180  THR180     -0.1218
    170  CA        24.4120  -20.2400    9.6900 C.3   180  THR180      0.1862
    171  C         23.5660  -19.8070    8.4730 C.2   180  THR180      0.2287
    172  O         23.1320  -20.6510    7.6880 O.2   180  THR180     -0.2866
    173  CB        25.7530  -20.7730    9.1190 C.3   180  THR180      0.1770
    174  OG1       26.7090  -20.9840   10.1720 O.3   180  THR180     -0.2211
    175  CG2       26.3250  -19.7670    8.1070 C.3   180  THR180      0.0375
@<TRIPOS>BOND
     1    56    57    1
     2    56    55    1
     3    55    54    1
     4    54    53    1
     5    26    24    1
     6    53    50    1
     7    24    25    1
     8    24    21    1
     9    50    49    1
    10    50    51    1
    11    49    37   am
    12    30    29    2
    13    38    37    2
    14    37    36    1
    15    36    35    1
    16    36    39    1
    17    20    21    1
    18    21    22    1
    19    29    28    1
    20    23    22    2
    21    22    27   am
    22    51    58   am
    23    51    52    2
    24    39    40    1
    25    27    28    1
    26    58    59    1
    27    63    62    1
    28    28    31    1
    29    40    41   ar
    30    40    42   ar
    31    61    60    2
    32    31    32    1
    33    62    59    1
    34    59    60    1
    35    41    43   ar
    36    45    42   ar
    37    45    47   ar
    38    42    44   ar
    39   110   113    1
    40   110   109    1
    41   110   111    1
    42   112   111    2
    43   113   114    1
    44    32    33    1
    45    32    34    1
    46   128   127    1
    47   128   129    1
    48    47    48   ar
    49   111   115   am
    50    43    44   ar
    51   127   124    1
    52    44    46   ar
    53   124   123    1
    54   124   125    1
    55   129   123    1
    56   123   117   am
    57   118   117    2
    58    48    46   ar
    59   115   116    1
    60   117   116    1
    61   125   126    2
    62   116   119    1
    63   103   104    1
    64   139   137   ar
    65   139   140   ar
    66   104   105    1
    67   104   107    1
    68   106   105    2
    69   137   135   ar
    70   140   138   ar
    71   119   120    1
    72   119   121    1
    73    18    17    2
    74    79    78    1
    75   108   107    1
    76   120   122    1
    77   130   131    1
    78    17    16    1
    79   138   136   ar
    80   135   136   ar
    81   135   134    1
    82    19    16    1
    83   134   131    1
    84    71    69   ar
    85    76    77    1
    86    76    73    1
    87    78    77    1
    88    16    15    1
    89    68    69    1
    90    68    65    1
    91   131   132    1
    92    64    65    1
    93    69    70   ar
    94   172   171    2
    95   132   133    2
    96    72    73    1
    97    72    66   am
    98    15    11   am
    99   175   173    1
   100    65    66    1
   101   166   164   ar
   102   166   167   ar
   103    73    74    1
   104   164   162   ar
   105   171   170    1
   106    66    67    2
   107   173   170    1
   108   173   174    1
   109   152   151    2
   110   168   167    1
   111    11    10    1
   112    11    12    2
   113   167   165   ar
   114    13    14    1
   115    13    10    1
   116   162   161    1
   117   162   163   ar
   118    74    75    2
   119   161   158    1
   120   170   169    1
   121   157   158    1
   122    10     9    1
   123   151   150    1
   124   158   159    1
   125   159   160    2
   126   148   146    1
   127   165   163   ar
   128    99   101   ar
   129    99    97   ar
   130    96    97    1
   131    96    93    1
   132   101   102   ar
   133    97    98   ar
   134   154   156    1
   135   154   153    1
   136   146   147    1
   137   146   145    1
   138     9     3   am
   139   102   100   ar
   140    98   100   ar
   141   150   153    1
   142   150   149    1
   143   153   155    1
   144     4     3    2
   145   141   142    1
   146    80    81    1
   147     3     2    1
   148    92    93    1
   149    92    82   am
   150   142   145    1
   151   142   143    1
   152    93    94    1
   153    84    81    1
   154    84    85    1
   155    81    82    1
   156    82    83    2
   157    94    95    2
   158    87    85   ar
   159    87    89   ar
   160    85    86   ar
   161     6     5    1
   162     6     8    1
   163     2     5    1
   164     2     1    1
   165   143   144    2
   166     7     5    1
   167    89    90   ar
   168    86    88   ar
   169    90    88   ar
   170    90    91    1
