@<TRIPOS>MOLECULE
tmp/1j4hA00.pdb
 149 148 0 0 0
SMALL
GASTEIGER

@<TRIPOS>ATOM
      1  N        -46.2710   35.8470   31.5430 N.3    26  TYR26      -0.1241
      2  CA       -45.7300   36.3200   30.2560 C.3    26  TYR26       0.1605
      3  C        -45.2250   35.2330   29.3410 C.2    26  TYR26       0.2264
      4  O        -44.9300   34.1280   29.8030 O.2    26  TYR26      -0.2867
      5  CB       -44.5380   37.2580   30.5030 C.3    26  TYR26       0.0534
      6  CG       -43.2850   36.5490   30.9610 C.ar   26  TYR26      -0.0201
      7  CD1      -42.2970   36.1680   30.0470 C.ar   26  TYR26      -0.0009
      8  CD2      -43.0700   36.2560   32.3120 C.ar   26  TYR26      -0.0009
      9  CE1      -41.1050   35.5040   30.4700 C.ar   26  TYR26       0.0417
     10  CE2      -41.9000   35.5930   32.7370 C.ar   26  TYR26       0.0417
     11  CZ       -40.9300   35.2280   31.8120 C.ar   26  TYR26       0.1957
     12  OH       -39.7830   34.5630   32.2370 O.3    26  TYR26      -0.2866
     13  N        -39.6740   31.6230   23.5200 N.3    36  PHE36      -0.1227
     14  CA       -38.4040   31.1930   24.0940 C.3    36  PHE36       0.1736
     15  C        -38.5150   31.0810   25.6140 C.2    36  PHE36       0.2595
     16  O        -37.6320   30.4920   26.2620 O.2    36  PHE36      -0.2718
     17  CB       -37.2090   32.0790   23.6990 C.3    36  PHE36       0.0547
     18  CG       -37.2740   33.4890   24.1970 C.ar   36  PHE36      -0.0202
     19  CD1      -37.4800   34.5470   23.3190 C.ar   36  PHE36      -0.0042
     20  CD2      -37.1100   33.7680   25.5480 C.ar   36  PHE36      -0.0042
     21  CE1      -37.5250   35.8650   23.7700 C.ar   36  PHE36      -0.0003
     22  CE2      -37.1550   35.0820   26.0040 C.ar   36  PHE36      -0.0003
     23  CZ       -37.3680   36.1290   25.1030 C.ar   36  PHE36      -0.0000
     24  N        -39.5680   31.6650   26.1820 N.am   37  ASP37      -0.1974
     25  CA       -39.8390   31.5050   27.6320 C.3    37  ASP37       0.1709
     26  C        -41.3050   31.7530   27.9540 C.2    37  ASP37       0.2293
     27  O        -41.9790   32.5360   27.2970 O.2    37  ASP37      -0.2864
     28  CB       -38.9920   32.4110   28.5170 C.3    37  ASP37       0.1436
     29  CG       -38.9790   31.9280   29.9690 C.2    37  ASP37       0.3671
     30  OD1      -38.8260   32.7610   30.8610 O.co2  37  ASP37      -0.2456
     31  OD2      -39.0890   30.6900   30.2100 O.co2  37  ASP37      -0.2456
     32  N        -44.6930   35.2430   37.4090 N.3    46  PHE46      -0.1241
     33  CA       -43.3830   35.8150   37.6510 C.3    46  PHE46       0.1605
     34  C        -43.5680   37.1150   38.4200 C.2    46  PHE46       0.2264
     35  O        -44.5010   37.8830   38.1540 O.2    46  PHE46      -0.2867
     36  CB       -42.7020   36.0830   36.2980 C.3    46  PHE46       0.0534
     37  CG       -41.4640   36.8950   36.3920 C.ar   46  PHE46      -0.0203
     38  CD1      -41.3660   38.0830   35.6950 C.ar   46  PHE46      -0.0042
     39  CD2      -40.4040   36.4940   37.2130 C.ar   46  PHE46      -0.0042
     40  CE1      -40.2160   38.8870   35.8010 C.ar   46  PHE46      -0.0003
     41  CE2      -39.2300   37.2910   37.3390 C.ar   46  PHE46      -0.0003
     42  CZ       -39.1390   38.4810   36.6310 C.ar   46  PHE46      -0.0000
     43  N        -34.6920   47.8170   38.8360 N.3    53  GLN53      -0.1231
     44  CA       -33.9510   47.4980   37.6200 C.3    53  GLN53       0.1698
     45  C        -33.6070   45.9780   37.5890 C.2    53  GLN53       0.2592
     46  O        -32.4890   45.5910   37.1960 O.2    53  GLN53      -0.2718
     47  CB       -32.6600   48.3750   37.5000 C.3    53  GLN53       0.0381
     48  CG       -32.8970   49.8630   37.1030 C.3    53  GLN53       0.0905
     49  CD       -32.2910   50.8880   38.0930 C.2    53  GLN53       0.2608
     50  OE1      -32.9840   51.8000   38.5470 O.2    53  GLN53      -0.2717
     51  NE2      -31.0150   50.7280   38.4320 N.am   53  GLN53      -0.0878
     52  N        -34.5470   45.1150   37.9980 N.am   54  GLU54      -0.1966
     53  CA       -34.2720   43.6730   37.9230 C.3    54  GLU54       0.1733
     54  C        -34.9160   43.0360   36.6980 C.2    54  GLU54       0.2616
     55  O        -34.9180   41.8150   36.5500 O.2    54  GLU54      -0.2715
     56  CB       -34.6630   42.9070   39.1970 C.3    54  GLU54       0.0429
     57  CG       -36.0860   43.0800   39.6250 C.3    54  GLU54       0.1163
     58  CD       -36.3780   42.4030   40.9610 C.2    54  GLU54       0.3649
     59  OE1      -35.4360   41.9590   41.6750 O.co2  54  GLU54      -0.2457
     60  OE2      -37.5770   42.3210   41.2970 O.co2  54  GLU54      -0.2457
     61  N        -35.4440   43.8820   35.8170 N.am   55  VAL55      -0.1963
     62  CA       -35.9560   43.4530   34.5200 C.3    55  VAL55       0.1727
     63  C        -35.4610   44.4940   33.5170 C.2    55  VAL55       0.2616
     64  O        -35.0620   45.6050   33.8910 O.2    55  VAL55      -0.2715
     65  CB       -37.4970   43.3360   34.4440 C.3    55  VAL55       0.0290
     66  CG1      -37.9550   42.2950   35.3870 C.3    55  VAL55       0.0023
     67  CG2      -38.1920   44.6610   34.7240 C.3    55  VAL55       0.0023
     68  N        -35.4770   44.1580   32.2320 N.am   56  ILE56      -0.1963
     69  CA       -34.9840   45.0970   31.2210 C.3    56  ILE56       0.1727
     70  C        -35.7960   46.3730   31.1560 C.2    56  ILE56       0.2616
     71  O        -36.9100   46.4310   31.6530 O.2    56  ILE56      -0.2715
     72  CB       -34.9700   44.4250   29.8550 C.3    56  ILE56       0.0290
     73  CG1      -36.3200   43.7330   29.5780 C.3    56  ILE56       0.0022
     74  CG2      -33.9060   43.3510   29.8830 C.3    56  ILE56       0.0023
     75  CD1      -36.4960   43.2500   28.0430 C.3    56  ILE56       0.0001
     76  N        -35.2050   47.4250   30.5830 N.am   57  ARG57      -0.1977
     77  CA       -35.8600   48.7190   30.5170 C.3    57  ARG57       0.1597
     78  C        -37.2340   48.6430   29.8630 C.2    57  ARG57       0.2287
     79  O        -38.1810   49.2950   30.3170 O.2    57  ARG57      -0.2864
     80  CB       -35.0020   49.7070   29.7240 C.3    57  ARG57       0.0334
     81  CG       -35.5490   51.1350   29.8090 C.3    57  ARG57       0.0492
     82  CD       -34.6360   52.0720   29.0150 C.3    57  ARG57       0.2205
     83  NE       -35.1190   53.4590   29.1060 N.pl3  57  ARG57      -0.0865
     84  CZ       -34.5130   54.4950   28.5450 C.cat  57  ARG57       0.5346
     85  NH1      -33.3980   54.3010   27.8580 N.pl3  57  ARG57       0.1354
     86  NH2      -35.0290   55.7400   28.6760 N.pl3  57  ARG57       0.1354
     87  N        -39.3710   46.3620   29.9530 N.3    59  TRP59      -0.1241
     88  CA       -40.3550   45.8310   30.8950 C.3    59  TRP59       0.1605
     89  C        -40.6810   46.8560   31.9900 C.2    59  TRP59       0.2264
     90  O        -41.8430   46.9930   32.3980 O.2    59  TRP59      -0.2867
     91  CB       -39.8510   44.5500   31.5720 C.3    59  TRP59       0.0550
     92  CG       -40.3200   43.2530   30.9720 C.ar   59  TRP59       0.0003
     93  CD1      -40.1150   42.8270   29.6850 C.ar   59  TRP59       0.0946
     94  CD2      -41.0550   42.1990   31.6310 C.ar   59  TRP59       0.0152
     95  NE1      -40.6710   41.5790   29.5110 N.ar   59  TRP59      -0.2442
     96  CE2      -41.2540   41.1710   30.6810 C.ar   59  TRP59       0.0810
     97  CE3      -41.5540   42.0260   32.9320 C.ar   59  TRP59       0.0012
     98  CZ2      -41.9410   39.9700   30.9780 C.ar   59  TRP59       0.0191
     99  CZ3      -42.2570   40.8040   33.2430 C.ar   59  TRP59       0.0001
    100  CH2      -42.4360   39.8000   32.2630 C.ar   59  TRP59       0.0015
    101  N        -31.5480   43.7100   25.5150 N.3    82  TYR82      -0.1241
    102  CA       -30.1640   43.2440   25.6970 C.3    82  TYR82       0.1605
    103  C        -29.0900   43.8370   24.7840 C.2    82  TYR82       0.2264
    104  O        -27.9130   43.4200   24.8080 O.2    82  TYR82      -0.2867
    105  CB       -30.1490   41.7120   25.6480 C.3    82  TYR82       0.0534
    106  CG       -30.9540   41.1060   26.7990 C.ar   82  TYR82      -0.0201
    107  CD1      -32.2450   40.5960   26.5720 C.ar   82  TYR82      -0.0009
    108  CD2      -30.4680   41.1230   28.1170 C.ar   82  TYR82      -0.0009
    109  CE1      -33.0420   40.1200   27.6220 C.ar   82  TYR82       0.0417
    110  CE2      -31.2620   40.6460   29.2100 C.ar   82  TYR82       0.0417
    111  CZ       -32.5690   40.1410   28.9370 C.ar   82  TYR82       0.1957
    112  OH       -33.4100   39.6930   29.9370 O.3    82  TYR82      -0.2866
    113  N        -28.4100   38.0950   25.5370 N.3    87  HIS87      -0.1241
    114  CA       -28.3330   37.3740   26.8140 C.3    87  HIS87       0.1621
    115  C        -27.8210   36.0270   26.3860 C.2    87  HIS87       0.2264
    116  O        -28.5880   35.1880   25.8900 O.2    87  HIS87      -0.2867
    117  CB       -29.6710   37.1700   27.4620 C.3    87  HIS87       0.0745
    118  CG       -29.5430   36.6290   28.8470 C.ar   87  HIS87       0.0817
    119  ND1      -29.5130   37.4510   29.9550 N.ar   87  HIS87      -0.2268
    120  CD2      -29.3600   35.3710   29.3020 C.ar   87  HIS87       0.1154
    121  CE1      -29.3210   36.7140   31.0370 C.ar   87  HIS87       0.1986
    122  NE2      -29.2290   35.4470   30.6670 N.ar   87  HIS87      -0.2212
    123  N        -29.5860   32.3970   25.0820 N.3    90  ILE90      -0.1231
    124  CA       -30.9770   32.4510   24.6440 C.3    90  ILE90       0.1692
    125  C        -31.4190   33.6510   23.7350 C.2    90  ILE90       0.2591
    126  O        -32.3050   33.4870   22.8980 O.2    90  ILE90      -0.2718
    127  CB       -31.8980   32.3700   25.8930 C.3    90  ILE90       0.0266
    128  CG1      -33.3530   32.2210   25.5100 C.3    90  ILE90       0.0019
    129  CG2      -31.7140   33.6420   26.8090 C.3    90  ILE90       0.0020
    130  CD1      -34.2060   31.8290   26.7750 C.3    90  ILE90       0.0001
    131  N        -30.7910   34.8210   23.8750 N.am   91  ILE91      -0.1980
    132  CA       -31.1660   36.0160   23.0820 C.3    91  ILE91       0.1595
    133  C        -29.9140   36.5050   22.4010 C.2    91  ILE91       0.2287
    134  O        -28.9260   36.8380   23.0450 O.2    91  ILE91      -0.2864
    135  CB       -31.7830   37.0920   23.9920 C.3    91  ILE91       0.0276
    136  CG1      -33.1130   36.5510   24.5310 C.3    91  ILE91       0.0022
    137  CG2      -31.9680   38.4470   23.2840 C.3    91  ILE91       0.0022
    138  CD1      -33.6660   37.4580   25.5780 C.3    91  ILE91       0.0001
    139  N        -43.1700   40.4930   23.9310 N.3    99  PHE99      -0.1241
    140  CA       -43.7130   39.7580   25.0600 C.3    99  PHE99       0.1605
    141  C        -45.2120   39.9630   25.1560 C.2    99  PHE99       0.2264
    142  O        -45.6940   41.0670   24.9220 O.2    99  PHE99      -0.2867
    143  CB       -43.1280   40.2590   26.4000 C.3    99  PHE99       0.0534
    144  CG       -41.6710   39.9620   26.6090 C.ar   99  PHE99      -0.0203
    145  CD1      -40.6680   40.8340   26.1060 C.ar   99  PHE99      -0.0042
    146  CD2      -41.2930   38.8820   27.3760 C.ar   99  PHE99      -0.0042
    147  CE1      -39.3020   40.6120   26.3900 C.ar   99  PHE99      -0.0003
    148  CE2      -39.9290   38.6340   27.6710 C.ar   99  PHE99      -0.0003
    149  CZ       -38.9390   39.4870   27.1920 C.ar   99  PHE99      -0.0000
@<TRIPOS>BOND
     1   133   134    2
     2   133   132    1
     3   126   125    2
     4   132   131    1
     5   132   135    1
     6   137   135    1
     7    19    21   ar
     8    19    18   ar
     9    13    14    1
    10    17    14    1
    11    17    18    1
    12   125   131   am
    13   125   124    1
    14    21    23   ar
    15   139   140    1
    16   135   136    1
    17    14    15    1
    18    18    20   ar
    19   136   138    1
    20   124   123    1
    21   124   127    1
    22   103   104    2
    23   103   102    1
    24   142   141    2
    25   140   141    1
    26   140   143    1
    27    23    22   ar
    28   128   127    1
    29   128   130    1
    30   101   102    1
    31   113   114    1
    32    20    22   ar
    33    15    24   am
    34    15    16    2
    35   105   102    1
    36   105   106    1
    37   116   115    2
    38   127   129    1
    39   145   147   ar
    40   145   144   ar
    41    24    25    1
    42   115   114    1
    43   147   149   ar
    44   143   144    1
    45   107   106   ar
    46   107   109   ar
    47   144   146   ar
    48   106   108   ar
    49   114   117    1
    50   149   148   ar
    51    27    26    2
    52   146   148   ar
    53   117   118    1
    54   109   111   ar
    55    25    26    1
    56    25    28    1
    57    85    84    1
    58    75    73    1
    59   108   110   ar
    60    28    29    1
    61    84    86    1
    62    84    83    2
    63   118   120   ar
    64   118   119   ar
    65   111   110   ar
    66   111   112    1
    67    82    83    1
    68    82    81    1
    69   120   122   ar
    70     3     4    2
    71     3     2    1
    72    95    93   ar
    73    95    96   ar
    74    73    72    1
    75    93    92   ar
    76    80    81    1
    77    80    77    1
    78    72    74    1
    79    72    69    1
    80    78    79    2
    81    78    77    1
    82    87    88    1
    83   119   121   ar
    84    29    31   ar
    85    29    30   ar
    86     7     9   ar
    87     7     6   ar
    88     2     5    1
    89     2     1    1
    90     9    11   ar
    91     5     6    1
    92    77    76    1
    93    76    70   am
    94   122   121   ar
    95    96    98   ar
    96    96    94   ar
    97    88    91    1
    98    88    89    1
    99     6     8   ar
   100    92    91    1
   101    92    94   ar
   102    98   100   ar
   103    70    69    1
   104    70    71    2
   105    69    68    1
   106    94    97   ar
   107    11    12    1
   108    11    10   ar
   109    89    90    2
   110    68    63   am
   111   100    99   ar
   112     8    10   ar
   113    97    99   ar
   114    63    64    2
   115    63    62    1
   116    65    62    1
   117    65    67    1
   118    65    66    1
   119    62    61    1
   120    38    40   ar
   121    38    37   ar
   122    40    42   ar
   123    61    54   am
   124    36    37    1
   125    36    33    1
   126    37    39   ar
   127    55    54    2
   128    42    41   ar
   129    54    53    1
   130    48    47    1
   131    48    49    1
   132    46    45    2
   133    39    41   ar
   134    32    33    1
   135    47    44    1
   136    45    44    1
   137    45    52   am
   138    44    43    1
   139    33    34    1
   140    53    52    1
   141    53    56    1
   142    49    51   am
   143    49    50    2
   144    35    34    2
   145    56    57    1
   146    57    58    1
   147    58    60   ar
   148    58    59   ar
