@<TRIPOS>MOLECULE
tmp/1j4iA00.pdb
 138 137 0 0 0
SMALL
GASTEIGER

@<TRIPOS>ATOM
      1  N         34.5780  -30.2870  -49.5760 N.3    26  TYR26      -0.1241
      2  CA        33.2360  -30.8430  -49.6450 C.3    26  TYR26       0.1605
      3  C         32.2500  -29.7420  -49.3990 C.2    26  TYR26       0.2264
      4  O         32.6150  -28.6950  -48.8650 O.2    26  TYR26      -0.2867
      5  CB        33.0690  -31.8900  -48.5200 C.3    26  TYR26       0.0534
      6  CG        33.0420  -31.2820  -47.1160 C.ar   26  TYR26      -0.0201
      7  CD1       31.8620  -30.7560  -46.6000 C.ar   26  TYR26      -0.0009
      8  CD2       34.2150  -31.2040  -46.3140 C.ar   26  TYR26      -0.0009
      9  CE1       31.8200  -30.1410  -45.3020 C.ar   26  TYR26       0.0417
     10  CE2       34.1960  -30.6090  -45.0160 C.ar   26  TYR26       0.0417
     11  CZ        32.9850  -30.0820  -44.5260 C.ar   26  TYR26       0.1957
     12  OH        32.8980  -29.5530  -43.2670 O.3    26  TYR26      -0.2866
     13  N         24.6120  -26.7290  -45.8660 N.3    36  PHE36      -0.1227
     14  CA        24.5890  -26.4820  -44.4120 C.3    36  PHE36       0.1736
     15  C         26.0520  -26.2270  -43.9280 C.2    36  PHE36       0.2595
     16  O         26.2360  -25.6230  -42.8960 O.2    36  PHE36      -0.2718
     17  CB        23.9270  -27.6180  -43.5910 C.3    36  PHE36       0.0547
     18  CG        24.5560  -28.9570  -43.7560 C.ar   36  PHE36      -0.0202
     19  CD1       23.9920  -29.9030  -44.6030 C.ar   36  PHE36      -0.0042
     20  CD2       25.7460  -29.2510  -43.0890 C.ar   36  PHE36      -0.0042
     21  CE1       24.6060  -31.1480  -44.8200 C.ar   36  PHE36      -0.0003
     22  CE2       26.3940  -30.4820  -43.2780 C.ar   36  PHE36      -0.0003
     23  CZ        25.8170  -31.4500  -44.1680 C.ar   36  PHE36      -0.0000
     24  N         27.0690  -26.6830  -44.6750 N.am   37  ASP37      -0.1974
     25  CA        28.5070  -26.4500  -44.3270 C.3    37  ASP37       0.1709
     26  C         29.3890  -26.7720  -45.5460 C.2    37  ASP37       0.2293
     27  O         29.0640  -27.6640  -46.3330 O.2    37  ASP37      -0.2864
     28  CB        28.9890  -27.3510  -43.1620 C.3    37  ASP37       0.1436
     29  CG        30.3690  -26.9030  -42.5710 C.2    37  ASP37       0.3671
     30  OD1       30.4290  -25.7930  -41.9890 O.co2  37  ASP37      -0.2456
     31  OD2       31.3960  -27.6390  -42.6870 O.co2  37  ASP37      -0.2456
     32  N         39.5540  -30.2020  -45.7080 N.3    46  PHE46      -0.1241
     33  CA        39.3190  -30.9780  -44.5160 C.3    46  PHE46       0.1605
     34  C         40.0370  -32.3400  -44.6680 C.2    46  PHE46       0.2264
     35  O         40.1010  -32.9340  -45.7680 O.2    46  PHE46      -0.2867
     36  CB        37.7950  -31.1580  -44.3040 C.3    46  PHE46       0.0534
     37  CG        37.4470  -32.1590  -43.2270 C.ar   46  PHE46      -0.0203
     38  CD1       37.1150  -33.4910  -43.5660 C.ar   46  PHE46      -0.0042
     39  CD2       37.3000  -31.7430  -41.8980 C.ar   46  PHE46      -0.0042
     40  CE1       36.6070  -34.4180  -42.5790 C.ar   46  PHE46      -0.0003
     41  CE2       36.7920  -32.6570  -40.9010 C.ar   46  PHE46      -0.0003
     42  CZ        36.4520  -33.9640  -41.2490 C.ar   46  PHE46      -0.0000
     43  N         36.8180  -43.4670  -37.9620 N.3    53  GLN53      -0.1231
     44  CA        35.5500  -42.9550  -37.4440 C.3    53  GLN53       0.1698
     45  C         35.4780  -41.4710  -37.0550 C.2    53  GLN53       0.2592
     46  O         34.7080  -41.0680  -36.1670 O.2    53  GLN53      -0.2718
     47  CB        35.1350  -43.8660  -36.2770 C.3    53  GLN53       0.0381
     48  CG        34.7420  -45.2380  -36.8280 C.3    53  GLN53       0.0905
     49  CD        34.6700  -46.3640  -35.7930 C.2    53  GLN53       0.2608
     50  OE1       35.0980  -47.5320  -36.0700 O.2    53  GLN53      -0.2717
     51  NE2       34.1310  -46.0510  -34.6090 N.am   53  GLN53      -0.0878
     52  N         36.2680  -40.6640  -37.7370 N.am   54  GLU54      -0.1966
     53  CA        36.3100  -39.2380  -37.5600 C.3    54  GLU54       0.1733
     54  C         35.1640  -38.6580  -38.3450 C.2    54  GLU54       0.2616
     55  O         34.7470  -37.5320  -38.0910 O.2    54  GLU54      -0.2715
     56  CB        37.6150  -38.6720  -38.1180 C.3    54  GLU54       0.0429
     57  CG        38.7630  -39.0270  -37.2980 C.3    54  GLU54       0.1163
     58  CD        40.0540  -38.3590  -37.7580 C.2    54  GLU54       0.3649
     59  OE1       40.5390  -37.4920  -37.0100 O.co2  54  GLU54      -0.2457
     60  OE2       40.5700  -38.6960  -38.8360 O.co2  54  GLU54      -0.2457
     61  N         34.6660  -39.4260  -39.3220 N.am   55  VAL55      -0.1963
     62  CA        33.5490  -38.9470  -40.1180 C.3    55  VAL55       0.1727
     63  C         32.4230  -39.9470  -40.1020 C.2    55  VAL55       0.2616
     64  O         32.6190  -41.1420  -39.7390 O.2    55  VAL55      -0.2715
     65  CB        33.9730  -38.6890  -41.5540 C.3    55  VAL55       0.0290
     66  CG1       35.1340  -37.6600  -41.5460 C.3    55  VAL55       0.0023
     67  CG2       34.3780  -40.0140  -42.2300 C.3    55  VAL55       0.0023
     68  N         31.2460  -39.4850  -40.5020 N.am   56  ILE56      -0.1977
     69  CA        30.0660  -40.3550  -40.5390 C.3    56  ILE56       0.1596
     70  C         30.2390  -41.6140  -41.4020 C.2    56  ILE56       0.2287
     71  O         31.0780  -41.6310  -42.2540 O.2    56  ILE56      -0.2864
     72  CB        28.8120  -39.6000  -41.0110 C.3    56  ILE56       0.0276
     73  CG1       29.0630  -38.9680  -42.3730 C.3    56  ILE56       0.0022
     74  CG2       28.3290  -38.6830  -39.8660 C.3    56  ILE56       0.0022
     75  CD1       27.8200  -38.2640  -42.9970 C.3    56  ILE56       0.0001
     76  N         30.5050  -41.3040  -45.1320 N.3    59  TRP59      -0.1241
     77  CA        31.8120  -40.8990  -45.6770 C.3    59  TRP59       0.1605
     78  C         32.8480  -42.0170  -45.6440 C.2    59  TRP59       0.2264
     79  O         33.6340  -42.2010  -46.6100 O.2    59  TRP59      -0.2867
     80  CB        32.3560  -39.7120  -44.8900 C.3    59  TRP59       0.0550
     81  CG        31.8800  -38.4060  -45.4510 C.ar   59  TRP59       0.0003
     82  CD1       30.5780  -38.0290  -45.7400 C.ar   59  TRP59       0.0946
     83  CD2       32.7050  -37.2840  -45.7720 C.ar   59  TRP59       0.0152
     84  NE1       30.5720  -36.7150  -46.2130 N.ar   59  TRP59      -0.2442
     85  CE2       31.8600  -36.2510  -46.2350 C.ar   59  TRP59       0.0810
     86  CE3       34.0920  -37.0540  -45.7120 C.ar   59  TRP59       0.0012
     87  CZ2       32.3530  -35.0030  -46.6330 C.ar   59  TRP59       0.0191
     88  CZ3       34.5820  -35.8010  -46.1080 C.ar   59  TRP59       0.0001
     89  CH2       33.7210  -34.8040  -46.5520 C.ar   59  TRP59       0.0015
     90  N         23.4440  -38.7300  -39.2290 N.3    82  TYR82      -0.1241
     91  CA        23.1250  -38.3820  -37.8740 C.3    82  TYR82       0.1605
     92  C         21.8410  -38.9130  -37.2650 C.2    82  TYR82       0.2264
     93  O         21.4470  -38.4870  -36.1840 O.2    82  TYR82      -0.2867
     94  CB        23.2320  -36.8570  -37.7030 C.3    82  TYR82       0.0534
     95  CG        24.6370  -36.4050  -38.0670 C.ar   82  TYR82      -0.0201
     96  CD1       24.9360  -35.9980  -39.3530 C.ar   82  TYR82      -0.0009
     97  CD2       25.6740  -36.4510  -37.1340 C.ar   82  TYR82      -0.0009
     98  CE1       26.2090  -35.6320  -39.7250 C.ar   82  TYR82       0.0417
     99  CE2       26.9980  -36.1040  -37.4800 C.ar   82  TYR82       0.0417
    100  CZ        27.2480  -35.6820  -38.8010 C.ar   82  TYR82       0.1957
    101  OH        28.5080  -35.2920  -39.2010 O.3    82  TYR82      -0.2866
    102  N         22.2590  -33.1910  -35.8260 N.3    87  HIS87      -0.1241
    103  CA        23.3290  -32.5080  -35.0930 C.3    87  HIS87       0.1621
    104  C         22.7500  -31.1250  -34.7740 C.2    87  HIS87       0.2264
    105  O         22.5500  -30.2990  -35.6750 O.2    87  HIS87      -0.2867
    106  CB        24.5680  -32.3480  -35.9430 C.3    87  HIS87       0.0745
    107  CG        25.7210  -31.8610  -35.1490 C.ar   87  HIS87       0.0817
    108  ND1       26.7390  -32.6900  -34.7200 N.ar   87  HIS87      -0.2268
    109  CD2       25.9410  -30.6620  -34.5760 C.ar   87  HIS87       0.1154
    110  CE1       27.5350  -32.0160  -33.9100 C.ar   87  HIS87       0.1986
    111  NE2       27.0730  -30.7800  -33.8050 N.ar   87  HIS87      -0.2212
    112  N         22.4660  -27.4480  -37.0400 N.3    90  ILE90      -0.1231
    113  CA        22.8650  -27.4820  -38.4600 C.3    90  ILE90       0.1692
    114  C         22.1720  -28.5920  -39.2230 C.2    90  ILE90       0.2591
    115  O         21.8680  -28.4260  -40.3890 O.2    90  ILE90      -0.2718
    116  CB        24.3450  -27.8310  -38.8170 C.3    90  ILE90       0.0266
    117  CG1       25.0720  -28.2860  -37.6120 C.3    90  ILE90       0.0019
    118  CG2       24.9390  -26.8470  -39.7970 C.3    90  ILE90       0.0020
    119  CD1       25.2190  -29.6880  -37.7410 C.3    90  ILE90       0.0001
    120  N         22.0030  -29.7580  -38.5970 N.am   91  ILE91      -0.1980
    121  CA        21.3700  -30.8610  -39.2800 C.3    91  ILE91       0.1595
    122  C         20.1770  -31.3550  -38.4790 C.2    91  ILE91       0.2287
    123  O         20.2890  -31.8270  -37.3520 O.2    91  ILE91      -0.2864
    124  CB        22.3890  -32.0100  -39.5200 C.3    91  ILE91       0.0276
    125  CG1       23.5730  -31.4830  -40.3720 C.3    91  ILE91       0.0022
    126  CG2       21.6660  -33.1970  -40.1270 C.3    91  ILE91       0.0022
    127  CD1       24.7350  -32.4590  -40.5020 C.3    91  ILE91       0.0001
    128  N         26.3140  -34.7720  -50.2740 N.3    99  PHE99      -0.1241
    129  CA        27.5990  -34.0960  -50.2720 C.3    99  PHE99       0.1605
    130  C         28.2260  -34.1220  -51.6630 C.2    99  PHE99       0.2264
    131  O         28.1630  -35.1410  -52.3530 O.2    99  PHE99      -0.2867
    132  CB        28.6240  -34.8250  -49.3830 C.3    99  PHE99       0.0534
    133  CG        28.3650  -34.6970  -47.9120 C.ar   99  PHE99      -0.0203
    134  CD1       27.5040  -35.5800  -47.2730 C.ar   99  PHE99      -0.0042
    135  CD2       28.9850  -33.6740  -47.1720 C.ar   99  PHE99      -0.0042
    136  CE1       27.2530  -35.4830  -45.8960 C.ar   99  PHE99      -0.0003
    137  CE2       28.7490  -33.5530  -45.8010 C.ar   99  PHE99      -0.0003
    138  CZ        27.8820  -34.4660  -45.1480 C.ar   99  PHE99      -0.0000
@<TRIPOS>BOND
     1   131   130    2
     2   130   129    1
     3   128   129    1
     4   129   132    1
     5     2     1    1
     6     2     3    1
     7     2     5    1
     8     3     4    2
     9   132   133    1
    10     5     6    1
    11   133   134   ar
    12   133   135   ar
    13   134   136   ar
    14   135   137   ar
    15     6     7   ar
    16     6     8   ar
    17    87    89   ar
    18    87    85   ar
    19    79    78    2
    20     7     9   ar
    21    89    88   ar
    22    27    26    2
    23     8    10   ar
    24    85    84   ar
    25    85    83   ar
    26    84    82   ar
    27    88    86   ar
    28   136   138   ar
    29    13    14    1
    30   137   138   ar
    31    83    86   ar
    32    83    81   ar
    33    35    34    2
    34    82    81   ar
    35    32    33    1
    36    77    78    1
    37    77    76    1
    38    77    80    1
    39    26    25    1
    40    81    80    1
    41     9    11   ar
    42    10    11   ar
    43    21    19   ar
    44    21    23   ar
    45    24    25    1
    46    24    15   am
    47    34    33    1
    48    19    18   ar
    49    11    12    1
    50    33    36    1
    51    14    15    1
    52    14    17    1
    53    25    28    1
    54    36    37    1
    55    23    22   ar
    56    15    16    2
    57    18    17    1
    58    18    20   ar
    59    38    37   ar
    60    38    40   ar
    61    22    20   ar
    62    37    39   ar
    63    28    29    1
    64    75    73    1
    65    31    29   ar
    66    40    42   ar
    67    29    30   ar
    68    73    72    1
    69    71    70    2
    70    67    65    1
    71    39    41   ar
    72    65    66    1
    73    65    62    1
    74    70    69    1
    75    42    41   ar
    76    72    69    1
    77    72    74    1
    78    69    68    1
    79   127   125    1
    80    68    63   am
    81   115   114    2
    82   125   124    1
    83   126   124    1
    84    62    63    1
    85    62    61    1
    86    63    64    2
    87   118   116    1
    88    98    96   ar
    89    98   100   ar
    90   124   121    1
    91    96    95   ar
    92    61    54   am
    93   121   120    1
    94   121   122    1
    95    90    91    1
    96   114   120   am
    97   114   113    1
    98   101   100    1
    99    60    58   ar
   100   116   113    1
   101   116   117    1
   102   100    99   ar
   103   122   123    2
   104   113   112    1
   105    54    55    2
   106    54    53    1
   107    56    53    1
   108    56    57    1
   109    95    94    1
   110    95    97   ar
   111    43    44    1
   112    91    94    1
   113    91    92    1
   114    58    57    1
   115    58    59   ar
   116   119   117    1
   117    52    53    1
   118    52    45   am
   119    99    97   ar
   120    44    45    1
   121    44    47    1
   122    92    93    2
   123    45    46    2
   124    48    47    1
   125    48    49    1
   126    50    49    2
   127   106   107    1
   128   106   103    1
   129   102   103    1
   130    49    51   am
   131   105   104    2
   132   107   108   ar
   133   107   109   ar
   134   103   104    1
   135   108   110   ar
   136   109   111   ar
   137   110   111   ar
