@<TRIPOS>MOLECULE
tmp/1j4rC00.pdb
 174 171 0 0 0
SMALL
GASTEIGER

@<TRIPOS>ATOM
      1  N          4.9910    6.7100   20.4930 N.3    26  TYR26      -0.1241
      2  CA         3.7910    7.4450   20.1370 C.3    26  TYR26       0.1605
      3  C          3.3930    8.4950   21.1580 C.2    26  TYR26       0.2264
      4  O          3.8220    8.5000   22.3310 O.2    26  TYR26      -0.2867
      5  CB         2.6070    6.4690   19.9580 C.3    26  TYR26       0.0534
      6  CG         2.1100    5.8680   21.2680 C.ar   26  TYR26      -0.0201
      7  CD1        1.1730    6.5490   22.0760 C.ar   26  TYR26      -0.0009
      8  CD2        2.6160    4.6610   21.7320 C.ar   26  TYR26      -0.0009
      9  CE1        0.7620    6.0290   23.3120 C.ar   26  TYR26       0.0417
     10  CE2        2.2200    4.1420   22.9570 C.ar   26  TYR26       0.0417
     11  CZ         1.2930    4.8250   23.7450 C.ar   26  TYR26       0.1957
     12  OH         0.9130    4.2820   24.9480 O.3    26  TYR26      -0.2866
     13  N         -3.0650   12.5760   25.9990 N.3    36  PHE36      -0.1227
     14  CA        -3.4800   11.7430   27.1200 C.3    36  PHE36       0.1736
     15  C         -2.3840   10.7540   27.5110 C.2    36  PHE36       0.2595
     16  O         -2.4300   10.1570   28.5970 O.2    36  PHE36      -0.2718
     17  CB        -4.8190   11.0320   26.8610 C.3    36  PHE36       0.0547
     18  CG        -4.8820   10.2920   25.5510 C.ar   36  PHE36      -0.0202
     19  CD1       -4.2420    9.0620   25.3920 C.ar   36  PHE36      -0.0042
     20  CD2       -5.5830   10.8310   24.4810 C.ar   36  PHE36      -0.0042
     21  CE1       -4.3020    8.3860   24.1850 C.ar   36  PHE36      -0.0003
     22  CE2       -5.6480   10.1560   23.2640 C.ar   36  PHE36      -0.0003
     23  CZ        -5.0050    8.9340   23.1200 C.ar   36  PHE36      -0.0000
     24  N         -1.4070   10.5710   26.6210 N.am   37  ASP37      -0.1974
     25  CA        -0.2790    9.6750   26.8830 C.3    37  ASP37       0.1709
     26  C          0.8000    9.7920   25.8210 C.2    37  ASP37       0.2293
     27  O          0.5130   10.0710   24.6600 O.2    37  ASP37      -0.2864
     28  CB        -0.7330    8.2190   26.9250 C.3    37  ASP37       0.1436
     29  CG         0.3690    7.2920   27.3590 C.2    37  ASP37       0.3671
     30  OD1        1.0720    7.6450   28.3280 O.co2  37  ASP37      -0.2456
     31  OD2        0.5530    6.2330   26.7280 O.co2  37  ASP37      -0.2456
     32  N          7.2190    8.8820   28.9050 N.3    42  ARG42      -0.1245
     33  CA         7.4310    7.8000   29.8550 C.3    42  ARG42       0.1563
     34  C          8.7630    7.0950   29.5490 C.2    42  ARG42       0.2260
     35  O          9.2710    6.3180   30.3640 O.2    42  ARG42      -0.2867
     36  CB         6.2670    6.8080   29.7900 C.3    42  ARG42       0.0307
     37  CG         4.9290    7.3750   30.2590 C.3    42  ARG42       0.0489
     38  CD         3.8610    6.2720   30.3860 C.3    42  ARG42       0.2205
     39  NE         3.2780    5.8490   29.1020 N.pl3  42  ARG42      -0.0865
     40  CZ         3.7490    4.8580   28.3520 C.cat  42  ARG42       0.5346
     41  NH1        3.1440    4.5470   27.2220 N.pl3  42  ARG42       0.1354
     42  NH2        4.8480    4.2010   28.7100 N.pl3  42  ARG42       0.1354
     43  N          9.5210    4.8460   27.2790 N.3    44  LYS44      -0.1245
     44  CA         9.3590    3.4110   27.1440 C.3    44  LYS44       0.1561
     45  C          8.6320    3.1160   25.8410 C.2    44  LYS44       0.2260
     46  O          7.4470    3.4170   25.7150 O.2    44  LYS44      -0.2867
     47  CB         8.5540    2.8140   28.3210 C.3    44  LYS44       0.0271
     48  CG         8.5400    1.2800   28.3160 C.3    44  LYS44       0.0035
     49  CD         7.7050    0.6760   29.4280 C.3    44  LYS44       0.0206
     50  CE         7.8280   -0.8530   29.3820 C.3    44  LYS44       0.1093
     51  NZ         6.8140   -1.6460   30.1480 N.3    44  LYS44      -0.1314
     52  N          6.5170    1.3400   23.0560 N.3    46  PHE46      -0.1241
     53  CA         5.4000    0.4150   23.2040 C.3    46  PHE46       0.1605
     54  C          5.5580   -0.7340   22.2260 C.2    46  PHE46       0.2264
     55  O          5.7040   -0.5300   21.0240 O.2    46  PHE46      -0.2867
     56  CB         4.0680    1.1390   22.9680 C.3    46  PHE46       0.0534
     57  CG         2.8620    0.2450   23.0450 C.ar   46  PHE46      -0.0203
     58  CD1        2.3410   -0.1440   24.2740 C.ar   46  PHE46      -0.0042
     59  CD2        2.2310   -0.2100   21.8840 C.ar   46  PHE46      -0.0042
     60  CE1        1.2100   -0.9770   24.3470 C.ar   46  PHE46      -0.0003
     61  CE2        1.1090   -1.0340   21.9570 C.ar   46  PHE46      -0.0003
     62  CZ         0.6030   -1.4170   23.1860 C.ar   46  PHE46      -0.0000
     63  N         -4.5870   -9.6990   19.4410 N.3    53  GLN53      -0.1231
     64  CA        -5.6810   -8.9560   20.0910 C.3    53  GLN53       0.1698
     65  C         -5.1740   -8.1850   21.3270 C.2    53  GLN53       0.2592
     66  O         -5.8170   -8.1580   22.3850 O.2    53  GLN53      -0.2718
     67  CB        -6.8280   -9.9230   20.4940 C.3    53  GLN53       0.0381
     68  CG        -7.4760  -10.7250   19.3480 C.3    53  GLN53       0.0905
     69  CD        -6.8020  -12.0530   19.0710 C.2    53  GLN53       0.2608
     70  OE1       -6.6760  -12.8910   19.9590 O.2    53  GLN53      -0.2717
     71  NE2       -6.3930  -12.2650   17.8250 N.am   53  GLN53      -0.0878
     72  N         -4.0350   -7.5200   21.1630 N.am   54  GLU54      -0.1966
     73  CA        -3.3880   -6.7780   22.2440 C.3    54  GLU54       0.1733
     74  C         -3.6780   -5.2870   22.2490 C.2    54  GLU54       0.2616
     75  O         -3.3930   -4.5900   23.2310 O.2    54  GLU54      -0.2715
     76  CB        -1.8670   -6.9660   22.1470 C.3    54  GLU54       0.0429
     77  CG        -1.4200   -8.4190   22.2360 C.3    54  GLU54       0.1163
     78  CD         0.0820   -8.5920   22.1580 C.2    54  GLU54       0.3649
     79  OE1        0.5540   -9.7070   22.4670 O.co2  54  GLU54      -0.2457
     80  OE2        0.7820   -7.6330   21.7810 O.co2  54  GLU54      -0.2457
     81  N         -4.2660   -4.8050   21.1650 N.am   55  VAL55      -0.1963
     82  CA        -4.5160   -3.3850   21.0320 C.3    55  VAL55       0.1727
     83  C         -5.8690   -3.0580   20.4300 C.2    55  VAL55       0.2616
     84  O         -6.4970   -3.8980   19.8040 O.2    55  VAL55      -0.2715
     85  CB        -3.4410   -2.7470   20.1250 C.3    55  VAL55       0.0290
     86  CG1       -2.0680   -2.7760   20.7950 C.3    55  VAL55       0.0023
     87  CG2       -3.4040   -3.4530   18.7890 C.3    55  VAL55       0.0023
     88  N         -6.2800   -1.8030   20.5590 N.am   56  ILE56      -0.1963
     89  CA        -7.5420   -1.3640   19.9750 C.3    56  ILE56       0.1727
     90  C         -7.5080   -1.5460   18.4450 C.2    56  ILE56       0.2616
     91  O         -6.4310   -1.5410   17.8100 O.2    56  ILE56      -0.2715
     92  CB        -7.8600    0.0890   20.3530 C.3    56  ILE56       0.0290
     93  CG1       -6.7120    1.0130   19.9150 C.3    56  ILE56       0.0022
     94  CG2       -8.1360    0.1530   21.8630 C.3    56  ILE56       0.0023
     95  CD1       -6.9700    2.5190   20.1340 C.3    56  ILE56       0.0001
     96  N         -8.6870   -1.7930   17.8740 N.am   57  ARG57      -0.1977
     97  CA        -8.8230   -2.0260   16.4390 C.3    57  ARG57       0.1597
     98  C         -8.1140   -1.0060   15.5260 C.2    57  ARG57       0.2287
     99  O         -7.4780   -1.3980   14.5380 O.2    57  ARG57      -0.2864
    100  CB       -10.3120   -2.1410   16.0930 C.3    57  ARG57       0.0334
    101  CG       -10.5440   -2.7090   14.7340 C.3    57  ARG57       0.0492
    102  CD       -11.9930   -2.7840   14.4420 C.3    57  ARG57       0.2205
    103  NE       -12.2380   -3.3020   13.1070 N.pl3  57  ARG57      -0.0865
    104  CZ       -13.4380   -3.6530   12.6610 C.cat  57  ARG57       0.5346
    105  NH1      -14.4970   -3.5330   13.4510 N.pl3  57  ARG57       0.1354
    106  NH2      -13.5780   -4.1330   11.4290 N.pl3  57  ARG57       0.1354
    107  N         -5.4160    0.7010   15.9830 N.3    59  TRP59      -0.1241
    108  CA        -3.9730    0.4260   15.9630 C.3    59  TRP59       0.1605
    109  C         -3.6590   -0.7820   15.1280 C.2    59  TRP59       0.2264
    110  O         -2.7750   -0.7540   14.2840 O.2    59  TRP59      -0.2867
    111  CB        -3.4430    0.1680   17.3730 C.3    59  TRP59       0.0550
    112  CG        -2.8900    1.3670   17.9630 C.ar   59  TRP59       0.0003
    113  CD1       -3.5370    2.5520   18.1400 C.ar   59  TRP59       0.0946
    114  CD2       -1.5340    1.5850   18.3450 C.ar   59  TRP59       0.0152
    115  NE1       -2.6640    3.5050   18.5920 N.ar   59  TRP59      -0.2442
    116  CE2       -1.4210    2.9360   18.7330 C.ar   59  TRP59       0.0810
    117  CE3       -0.3930    0.7710   18.4000 C.ar   59  TRP59       0.0012
    118  CZ2       -0.2060    3.5020   19.1710 C.ar   59  TRP59       0.0191
    119  CZ3        0.8160    1.3390   18.8360 C.ar   59  TRP59       0.0001
    120  CH2        0.8910    2.6870   19.2160 C.ar   59  TRP59       0.0015
    121  N        -11.8560    2.3830   18.9790 N.3    81  ALA81      -0.1231
    122  CA       -11.0050    2.6540   20.1200 C.3    81  ALA81       0.1694
    123  C        -11.6860    2.2280   21.4160 C.2    81  ALA81       0.2592
    124  O        -11.7990    1.0380   21.6850 O.2    81  ALA81      -0.2718
    125  CB       -10.6300    4.1530   20.1450 C.3    81  ALA81       0.0304
    126  N        -12.1990    3.1880   22.1880 N.am   82  TYR82      -0.1976
    127  CA       -12.8250    2.8770   23.4750 C.3    82  TYR82       0.1639
    128  C        -14.3220    3.1500   23.6220 C.2    82  TYR82       0.2290
    129  O        -14.8620    3.0550   24.7300 O.2    82  TYR82      -0.2864
    130  CB       -12.0470    3.5560   24.5970 C.3    82  TYR82       0.0560
    131  CG       -10.6030    3.1350   24.6490 C.ar   82  TYR82      -0.0198
    132  CD1      -10.2030    2.0280   25.4140 C.ar   82  TYR82      -0.0009
    133  CD2       -9.6330    3.8190   23.9210 C.ar   82  TYR82      -0.0009
    134  CE1       -8.8770    1.6180   25.4490 C.ar   82  TYR82       0.0417
    135  CE2       -8.3170    3.4130   23.9490 C.ar   82  TYR82       0.0417
    136  CZ        -7.9460    2.3190   24.7120 C.ar   82  TYR82       0.1957
    137  OH        -6.6360    1.9130   24.7270 O.3    82  TYR82      -0.2866
    138  N        -11.9030    4.9200   28.7800 N.3    87  HIS87      -0.1241
    139  CA       -11.1110    4.1870   29.7620 C.3    87  HIS87       0.1621
    140  C        -10.9120    5.1850   30.8680 C.2    87  HIS87       0.2264
    141  O         -9.9430    5.9330   30.8530 O.2    87  HIS87      -0.2867
    142  CB        -9.7530    3.7230   29.2320 C.3    87  HIS87       0.0745
    143  CG        -9.0220    2.8320   30.1920 C.ar   87  HIS87       0.0817
    144  ND1       -9.4290    1.5450   30.4660 N.ar   87  HIS87      -0.2268
    145  CD2       -7.9400    3.0590   30.9740 C.ar   87  HIS87       0.1154
    146  CE1       -8.6300    1.0170   31.3760 C.ar   87  HIS87       0.1986
    147  NE2       -7.7190    1.9160   31.7010 N.ar   87  HIS87      -0.2212
    148  N         -8.0140    7.9330   31.7390 N.3    90  ILE90      -0.1231
    149  CA        -7.1320    8.2920   30.6340 C.3    90  ILE90       0.1692
    150  C         -7.8770    8.7200   29.3680 C.2    90  ILE90       0.2591
    151  O         -7.5590    9.7360   28.7680 O.2    90  ILE90      -0.2718
    152  CB        -6.0700    7.1720   30.3680 C.3    90  ILE90       0.0266
    153  CG1       -5.1590    7.5500   29.2100 C.3    90  ILE90       0.0019
    154  CG2       -6.7340    5.8190   30.1400 C.3    90  ILE90       0.0020
    155  CD1       -3.9680    6.6580   29.1200 C.3    90  ILE90       0.0001
    156  N         -8.9160    7.9850   29.0070 N.am   91  ILE91      -0.1980
    157  CA        -9.6960    8.3030   27.8140 C.3    91  ILE91       0.1595
    158  C        -11.1400    8.5320   28.2350 C.2    91  ILE91       0.2287
    159  O        -11.7290    7.6780   28.9180 O.2    91  ILE91      -0.2864
    160  CB        -9.7270    7.1210   26.7980 C.3    91  ILE91       0.0276
    161  CG1       -8.3150    6.5720   26.5380 C.3    91  ILE91       0.0022
    162  CG2      -10.4280    7.5480   25.4940 C.3    91  ILE91       0.0022
    163  CD1       -7.4410    7.4200   25.6420 C.3    91  ILE91       0.0001
    164  N         -3.1440    9.4700   17.1520 N.3    99  PHE99      -0.1241
    165  CA        -1.8260    8.9570   17.5650 C.3    99  PHE99       0.1605
    166  C         -0.7240    9.2780   16.5600 C.2    99  PHE99       0.2264
    167  O         -0.8420    8.9560   15.3620 O.2    99  PHE99      -0.2867
    168  CB        -1.8150    7.4220   17.7650 C.3    99  PHE99       0.0534
    169  CG        -2.5790    6.9430   18.9570 C.ar   99  PHE99      -0.0203
    170  CD1       -3.9470    6.6900   18.8640 C.ar   99  PHE99      -0.0042
    171  CD2       -1.9300    6.6910   20.1580 C.ar   99  PHE99      -0.0042
    172  CE1       -4.6600    6.1950   19.9450 C.ar   99  PHE99      -0.0003
    173  CE2       -2.6380    6.1860   21.2570 C.ar   99  PHE99      -0.0003
    174  CZ        -4.0140    5.9400   21.1430 C.ar   99  PHE99      -0.0000
@<TRIPOS>BOND
     1   106   104    1
     2   104   103    2
     3   104   105    1
     4   103   102    1
     5   110   109    2
     6   102   101    1
     7    99    98    2
     8   101   100    1
     9   109   108    1
    10   167   166    2
    11    98    97    1
    12   108   107    1
    13   108   111    1
    14   100    97    1
    15    97    96    1
    16   166   165    1
    17   164   165    1
    18   111   112    1
    19   165   168    1
    20   168   169    1
    21    91    90    2
    22    71    69   am
    23    96    90   am
    24   112   113   ar
    25   112   114   ar
    26   113   115   ar
    27   114   117   ar
    28   114   116   ar
    29   117   119   ar
    30    90    89    1
    31   115   116   ar
    32   116   118   ar
    33    87    85    1
    34   119   120   ar
    35   170   169   ar
    36   170   172   ar
    37   169   171   ar
    38   121   122    1
    39    69    68    1
    40    69    70    2
    41   118   120   ar
    42    68    67    1
    43    63    64    1
    44    84    83    2
    45    93    95    1
    46    93    92    1
    47   172   174   ar
    48     5     2    1
    49     5     6    1
    50    89    92    1
    51    89    88    1
    52    64    67    1
    53    64    65    1
    54   122   125    1
    55   122   123    1
    56    85    86    1
    57    85    82    1
    58     2     1    1
    59     2     3    1
    60   171   173   ar
    61    92    94    1
    62    83    88   am
    63    83    82    1
    64    55    54    2
    65    82    81    1
    66   174   173   ar
    67     3     4    2
    68    72    65   am
    69    72    73    1
    70    81    74   am
    71     6     8   ar
    72     6     7   ar
    73    65    66    2
    74   123   124    2
    75   123   126   am
    76     8    10   ar
    77    80    78   ar
    78    59    61   ar
    79    59    57   ar
    80    61    62   ar
    81     7     9   ar
    82    76    77    1
    83    76    73    1
    84    78    77    1
    85    78    79   ar
    86   126   127    1
    87    54    53    1
    88    73    74    1
    89    74    75    2
    90    10    11   ar
    91    56    57    1
    92    56    53    1
    93    57    58   ar
    94    52    53    1
    95    23    22   ar
    96    23    21   ar
    97    62    60   ar
    98    22    20   ar
    99     9    11   ar
   100   127   128    1
   101   127   130    1
   102   128   129    2
   103    11    12    1
   104   133   135   ar
   105   133   131   ar
   106   135   136   ar
   107    21    19   ar
   108    58    60   ar
   109    20    18   ar
   110   130   131    1
   111   131   132   ar
   112    27    26    2
   113   136   137    1
   114   136   134   ar
   115    19    18   ar
   116   132   134   ar
   117   162   160    1
   118    18    17    1
   119   163   161    1
   120    46    45    2
   121    26    25    1
   122    45    44    1
   123    13    14    1
   124   161   160    1
   125    24    25    1
   126    24    15   am
   127    31    29   ar
   128   160   157    1
   129    17    14    1
   130    25    28    1
   131    28    29    1
   132    14    15    1
   133    44    43    1
   134    44    47    1
   135    41    40    1
   136    29    30   ar
   137    15    16    2
   138   157   158    1
   139   157   156    1
   140   158   159    2
   141    48    47    1
   142    48    49    1
   143    40    42    1
   144    40    39    2
   145   151   150    2
   146   138   139    1
   147    32    33    1
   148   156   150   am
   149    39    38    1
   150   155   153    1
   151   153   152    1
   152   142   139    1
   153   142   143    1
   154   150   149    1
   155    50    49    1
   156    50    51    1
   157    34    33    1
   158    34    35    2
   159   139   140    1
   160    36    33    1
   161    36    37    1
   162   154   152    1
   163   143   144   ar
   164   143   145   ar
   165    37    38    1
   166   152   149    1
   167   144   146   ar
   168   149   148    1
   169   141   140    2
   170   145   147   ar
   171   146   147   ar
