@<TRIPOS>MOLECULE
tmp/1j4uC00.pdb
 70 64 0 0 0
SMALL
GASTEIGER

@<TRIPOS>ATOM
      1  N         69.2940   90.7580   -4.3620 N.3    13  GLY13      -0.1210
      2  CA        69.1110   91.8120   -3.3750 C.3    13  GLY13       0.1956
      3  C         69.2760   91.3940   -1.9270 C.2    13  GLY13       0.2612
      4  O         69.6370   90.2800   -1.5600 O.2    13  GLY13      -0.2717
      5  N         69.0380   92.2530   -0.9320 N.am   14  GLY14      -0.1956
      6  CA        69.1670   91.8900    0.4820 C.3    14  GLY14       0.1869
      7  C         70.4640   91.1910    0.8910 C.2    14  GLY14       0.2309
      8  O         71.4340   91.0330    0.1590 O.2    14  GLY14      -0.2863
      9  N         57.8730   98.4200   -3.1910 N.3    88  LEU88      -0.1231
     10  CA        59.0910   98.5270   -2.3930 C.3    88  LEU88       0.1693
     11  C         60.2970   98.8450   -3.2660 C.2    88  LEU88       0.2592
     12  O         61.2270   98.0690   -3.4550 O.2    88  LEU88      -0.2718
     13  CB        59.2870   97.2230   -1.6070 C.3    88  LEU88       0.0284
     14  CG        58.1000   96.8690   -0.6880 C.3    88  LEU88       0.0019
     15  CD1       58.3450   95.5520    0.0000 C.3    88  LEU88       0.0001
     16  CD2       57.8830   97.9700    0.3450 C.3    88  LEU88       0.0001
     17  N         60.3690  100.0370   -3.8820 N.am   89  ALA89      -0.1966
     18  CA        61.4480  100.4970   -4.7470 C.3    89  ALA89       0.1728
     19  C         62.7710   99.7820   -4.7130 C.2    89  ALA89       0.2616
     20  O         63.7510  100.1330   -4.0430 O.2    89  ALA89      -0.2715
     21  CB        61.6910  101.9730   -4.5290 C.3    89  ALA89       0.0334
     22  N         62.9330   98.6780   -5.4200 N.am   90  THR90      -0.1951
     23  CA        64.1930   98.0000   -5.5020 C.3    90  THR90       0.1897
     24  C         64.0070   97.4300   -6.8920 C.2    90  THR90       0.2313
     25  O         62.9380   96.9200   -7.2190 O.2    90  THR90      -0.2863
     26  CB        64.3500   96.8980   -4.4550 C.3    90  THR90       0.1794
     27  OG1       65.1400   95.8470   -5.0310 O.3    90  THR90      -0.2208
     28  CG2       62.9780   96.3860   -3.9770 C.3    90  THR90       0.0378
     29  N         65.6660   94.8760   -8.3030 N.3    92  THR92      -0.1218
     30  CA        65.8480   93.4360   -8.4350 C.3    92  THR92       0.1862
     31  C         64.6900   92.5050   -8.0500 C.2    92  THR92       0.2287
     32  O         63.7980   92.9010   -7.2890 O.2    92  THR92      -0.2866
     33  CB        67.1450   93.0610   -7.6960 C.3    92  THR92       0.1770
     34  OG1       67.3300   91.6400   -7.7240 O.3    92  THR92      -0.2211
     35  CG2       67.0970   93.5490   -6.2670 C.3    92  THR92       0.0375
     36  N         62.3120   89.4670   -6.4350 N.3    94  VAL94      -0.1245
     37  CA        62.0500   89.0910   -5.0910 C.3    94  VAL94       0.1561
     38  C         61.1650   87.8640   -5.1010 C.2    94  VAL94       0.2260
     39  O         60.4190   87.5980   -6.0350 O.2    94  VAL94      -0.2867
     40  CB        61.3200   90.2440   -4.4080 C.3    94  VAL94       0.0252
     41  CG1       60.4510   89.7210   -3.2900 C.3    94  VAL94       0.0019
     42  CG2       62.3180   91.2340   -3.8900 C.3    94  VAL94       0.0019
     43  N         66.2480   91.0070    2.8740 N.3   136  GLY136     -0.1210
     44  CA        66.5760   92.4100    3.0650 C.3   136  GLY136      0.1956
     45  C         65.3390   92.9560    3.7580 C.2   136  GLY136      0.2612
     46  O         65.1570   92.9830    4.9790 O.2   136  GLY136     -0.2717
     47  N         64.3360   93.4710    3.0560 N.am  137  ASP137     -0.1959
     48  CA        63.1150   93.9270    3.7050 C.3   137  ASP137      0.1840
     49  C         62.1440   92.8080    3.3640 C.2   137  ASP137      0.2621
     50  O         61.0910   92.5830    3.9630 O.2   137  ASP137     -0.2715
     51  CB        62.6440   95.2630    3.1340 C.3   137  ASP137      0.1450
     52  CG        63.5100   96.4370    3.5940 C.2   137  ASP137      0.3671
     53  OD1       63.1670   97.5970    3.2730 O.co2 137  ASP137     -0.2456
     54  OD2       64.5340   96.2080    4.2730 O.co2 137  ASP137     -0.2456
     55  N         62.4220   91.9930    2.3440 N.am  138  LEU138     -0.1977
     56  CA        61.5830   90.8580    1.9720 C.3   138  LEU138      0.1596
     57  C         62.5020   89.6700    1.8030 C.2   138  LEU138      0.2287
     58  O         63.6840   89.6200    2.1560 O.2   138  LEU138     -0.2864
     59  CB        60.8920   91.0340    0.6180 C.3   138  LEU138      0.0297
     60  CG        59.9010   92.1280    0.2820 C.3   138  LEU138      0.0022
     61  CD1       58.9040   92.3290    1.4190 C.3   138  LEU138      0.0001
     62  CD2       60.6990   93.3680    0.0070 C.3   138  LEU138      0.0001
     63  N         64.4910   88.0920   -0.7720 N.3   140  ASP140     -0.1239
     64  CA        64.9530   88.2480   -2.1390 C.3   140  ASP140      0.1674
     65  C         65.0910   86.9250   -2.8390 C.2   140  ASP140      0.2266
     66  O         64.7270   86.7080   -3.9990 O.2   140  ASP140     -0.2867
     67  CB        66.2950   88.9450   -2.1600 C.3   140  ASP140      0.1410
     68  CG        66.1940   90.3700   -1.7350 C.2   140  ASP140      0.3668
     69  OD1       66.0000   90.6120   -0.5280 O.co2 140  ASP140     -0.2456
     70  OD2       66.2870   91.2490   -2.6180 O.co2 140  ASP140     -0.2456
@<TRIPOS>BOND
     1    30    29    1
     2    30    31    1
     3    30    33    1
     4    31    32    2
     5    34    33    1
     6    33    35    1
     7    25    24    2
     8    24    23    1
     9    36    37    1
    10    39    38    2
    11    23    22    1
    12    23    26    1
    13    22    19   am
    14    38    37    1
    15    37    40    1
    16    27    26    1
    17    18    19    1
    18    18    21    1
    19    18    17    1
    20    19    20    2
    21    26    28    1
    22    40    42    1
    23    40    41    1
    24     1     2    1
    25    66    65    2
    26    17    11   am
    27    12    11    2
    28     2     3    1
    29    11    10    1
    30     9    10    1
    31    65    64    1
    32    70    68   ar
    33    10    13    1
    34    67    64    1
    35    67    68    1
    36    64    63    1
    37     3     4    2
    38     3     5   am
    39    68    69   ar
    40    13    14    1
    41     5     6    1
    42    14    15    1
    43    14    16    1
    44    62    60    1
    45     8     7    2
    46    60    59    1
    47    60    61    1
    48     6     7    1
    49    59    56    1
    50    57    56    1
    51    57    58    2
    52    56    55    1
    53    55    49   am
    54    43    44    1
    55    47    48    1
    56    47    45   am
    57    44    45    1
    58    51    52    1
    59    51    48    1
    60    53    52   ar
    61    49    48    1
    62    49    50    2
    63    52    54   ar
    64    45    46    2
