@<TRIPOS>MOLECULE
tmp/1j51A01.pdb
 110 102 0 0 0
SMALL
GASTEIGER

@<TRIPOS>ATOM
      1  N         23.4480  -16.7900  -36.3170 N.3    78  TRP78      -0.1241
      2  CA        22.4830  -17.7520  -36.7590 C.3    78  TRP78       0.1605
      3  C         21.7690  -18.4790  -35.6490 C.2    78  TRP78       0.2264
      4  O         22.3140  -18.6670  -34.5630 O.2    78  TRP78      -0.2867
      5  CB        23.1510  -18.7250  -37.7180 C.3    78  TRP78       0.0550
      6  CG        23.1150  -18.1650  -39.1020 C.ar   78  TRP78       0.0003
      7  CD1       23.3810  -16.8570  -39.4910 C.ar   78  TRP78       0.0946
      8  CD2       22.8400  -18.8770  -40.2920 C.ar   78  TRP78       0.0152
      9  NE1       23.2900  -16.7360  -40.8510 N.ar   78  TRP78      -0.2442
     10  CE2       22.9640  -17.9600  -41.3700 C.ar   78  TRP78       0.0810
     11  CE3       22.5070  -20.1960  -40.5600 C.ar   78  TRP78       0.0012
     12  CZ2       22.7680  -18.3310  -42.6690 C.ar   78  TRP78       0.0191
     13  CZ3       22.3130  -20.5550  -41.8420 C.ar   78  TRP78       0.0001
     14  CH2       22.4440  -19.6350  -42.8920 C.ar   78  TRP78       0.0015
     15  N         29.0050  -20.8950  -37.1350 N.3    87  PHE87      -0.1241
     16  CA        28.9780  -19.9940  -38.2880 C.3    87  PHE87       0.1605
     17  C         30.1980  -19.1330  -38.2170 C.2    87  PHE87       0.2264
     18  O         30.1960  -18.1950  -37.4450 O.2    87  PHE87      -0.2867
     19  CB        27.7210  -19.1300  -38.2340 C.3    87  PHE87       0.0534
     20  CG        27.5430  -18.2060  -39.3940 C.ar   87  PHE87      -0.0203
     21  CD1       26.5560  -18.4500  -40.3430 C.ar   87  PHE87      -0.0042
     22  CD2       28.2860  -17.0310  -39.4890 C.ar   87  PHE87      -0.0042
     23  CE1       26.3010  -17.5450  -41.3550 C.ar   87  PHE87      -0.0003
     24  CE2       28.0350  -16.1080  -40.5180 C.ar   87  PHE87      -0.0003
     25  CZ        27.0390  -16.3770  -41.4410 C.ar   87  PHE87      -0.0000
     26  N         30.8410  -11.7370  -42.5110 N.3    92  THR92      -0.1218
     27  CA        29.6060  -11.7790  -41.7780 C.3    92  THR92       0.1862
     28  C         29.6800  -12.1300  -40.3040 C.2    92  THR92       0.2287
     29  O         28.9270  -11.5650  -39.5060 O.2    92  THR92      -0.2866
     30  CB        28.6280  -12.7020  -42.5000 C.3    92  THR92       0.1770
     31  OG1       28.7680  -12.5050  -43.9200 O.3    92  THR92      -0.2211
     32  CG2       27.1890  -12.4080  -42.0590 C.3    92  THR92       0.0375
     33  N         20.2650  -22.5220  -44.8770 N.3   176  THR176     -0.1218
     34  CA        19.1720  -21.5640  -44.7920 C.3   176  THR176      0.1862
     35  C         17.8270  -22.1390  -44.3280 C.2   176  THR176      0.2287
     36  O         17.0970  -21.5250  -43.5200 O.2   176  THR176     -0.2866
     37  CB        18.9780  -20.9310  -46.1590 C.3   176  THR176      0.1770
     38  OG1       18.8420  -21.9640  -47.1440 O.3   176  THR176     -0.2211
     39  CG2       20.1760  -20.0680  -46.4850 C.3   176  THR176      0.0375
     40  N         31.2680  -17.8930  -47.7310 N.3   235  LEU235     -0.1231
     41  CA        30.1150  -17.0160  -47.5600 C.3   235  LEU235      0.1693
     42  C         29.6230  -16.5200  -48.8890 C.2   235  LEU235      0.2591
     43  O         28.4300  -16.5090  -49.1420 O.2   235  LEU235     -0.2718
     44  CB        30.4230  -15.8050  -46.6570 C.3   235  LEU235      0.0284
     45  CG        29.1520  -14.9360  -46.5560 C.3   235  LEU235      0.0019
     46  CD1       28.4830  -15.1060  -45.2090 C.3   235  LEU235      0.0001
     47  CD2       29.4800  -13.4870  -46.8350 C.3   235  LEU235      0.0001
     48  N         30.5520  -16.1110  -49.7490 N.am  236  LEU236     -0.1980
     49  CA        30.1810  -15.5970  -51.0540 C.3   236  LEU236      0.1596
     50  C         29.3220  -16.6230  -51.7510 C.2   236  LEU236      0.2287
     51  O         28.3190  -16.2840  -52.3940 O.2   236  LEU236     -0.2864
     52  CB        31.4320  -15.2880  -51.8960 C.3   236  LEU236      0.0297
     53  CG        32.2540  -14.0610  -51.4610 C.3   236  LEU236      0.0022
     54  CD1       33.3690  -13.7610  -52.4790 C.3   236  LEU236      0.0001
     55  CD2       31.3320  -12.8680  -51.3620 C.3   236  LEU236      0.0001
     56  N         27.4750  -18.9130  -50.3730 N.3   238  LEU238     -0.1231
     57  CA        26.1730  -18.9020  -49.7390 C.3   238  LEU238      0.1693
     58  C         25.3790  -17.6990  -50.2780 C.2   238  LEU238      0.2592
     59  O         24.2100  -17.8080  -50.6300 O.2   238  LEU238     -0.2718
     60  CB        26.3550  -18.8070  -48.2300 C.3   238  LEU238      0.0284
     61  CG        25.0630  -18.8550  -47.4310 C.3   238  LEU238      0.0019
     62  CD1       24.2490  -20.1120  -47.8350 C.3   238  LEU238      0.0001
     63  CD2       25.3980  -18.8470  -45.9370 C.3   238  LEU238      0.0001
     64  N         26.0230  -16.5450  -50.3550 N.am  239  GLY239     -0.1957
     65  CA        25.3250  -15.3870  -50.8780 C.3   239  GLY239      0.1869
     66  C         24.9720  -15.5140  -52.3590 C.2   239  GLY239      0.2309
     67  O         24.0500  -14.8760  -52.8290 O.2   239  GLY239     -0.2863
     68  N         19.8500  -16.5490  -52.5760 N.3   243  THR243     -0.1218
     69  CA        19.3220  -15.2160  -52.2900 C.3   243  THR243      0.1862
     70  C         18.3060  -14.8790  -53.3780 C.2   243  THR243      0.2287
     71  O         17.1000  -15.0780  -53.2240 O.2   243  THR243     -0.2866
     72  CB        20.4780  -14.1920  -52.3100 C.3   243  THR243      0.1770
     73  OG1       21.2690  -14.4000  -53.5010 O.3   243  THR243     -0.2211
     74  CG2       21.3760  -14.3550  -51.0590 C.3   243  THR243      0.0375
     75  N         15.0910  -12.2550  -45.9050 N.3   286  VAL286     -0.1245
     76  CA        16.1780  -12.6260  -45.0300 C.3   286  VAL286      0.1561
     77  C         15.9040  -12.2360  -43.5950 C.2   286  VAL286      0.2260
     78  O         15.3490  -11.1590  -43.3290 O.2   286  VAL286     -0.2867
     79  CB        17.4860  -11.9390  -45.4080 C.3   286  VAL286      0.0252
     80  CG1       18.6030  -12.4070  -44.4540 C.3   286  VAL286      0.0019
     81  CG2       17.8140  -12.2260  -46.8490 C.3   286  VAL286      0.0019
     82  N         18.3730  -12.7520  -40.1960 N.3   288  ASP288     -0.1239
     83  CA        19.3710  -13.3900  -39.3490 C.3   288  ASP288      0.1674
     84  C         19.4360  -12.6330  -38.0160 C.2   288  ASP288      0.2266
     85  O         18.4440  -12.0170  -37.6520 O.2   288  ASP288     -0.2867
     86  CB        20.7280  -13.6380  -40.0670 C.3   288  ASP288      0.1410
     87  CG        21.5390  -12.4040  -40.2880 C.2   288  ASP288      0.3668
     88  OD1       21.0050  -11.2670  -40.1670 O.co2 288  ASP288     -0.2456
     89  OD2       22.7330  -12.5970  -40.6150 O.co2 288  ASP288     -0.2456
     90  N         24.5000   -5.6160  -47.4820 N.3   348  CYS348     -0.1235
     91  CA        24.7780   -6.5710  -48.5550 C.3   348  CYS348      0.1677
     92  C         25.6960   -6.1150  -49.6960 C.2   348  CYS348      0.2270
     93  O         25.3510   -5.2250  -50.4910 O.2   348  CYS348     -0.2867
     94  CB        23.4560   -7.0560  -49.1470 C.3   348  CYS348      0.0956
     95  SG        23.6530   -8.2340  -50.4700 S.3   348  CYS348     -0.0801
     96  N         16.3800  -18.8980  -42.4110 N.3   386  ILE386     -0.1231
     97  CA        17.2490  -17.7200  -42.4260 C.3   386  ILE386      0.1692
     98  C         16.9180  -16.9610  -43.7060 C.2   386  ILE386      0.2591
     99  O         16.9220  -15.7410  -43.7430 O.2   386  ILE386     -0.2718
    100  CB        18.7240  -18.1360  -42.4570 C.3   386  ILE386      0.0266
    101  CG1       19.0460  -18.9770  -41.2040 C.3   386  ILE386      0.0019
    102  CG2       19.6240  -16.9050  -42.5410 C.3   386  ILE386      0.0020
    103  CD1       19.0910  -18.1300  -39.8610 C.3   386  ILE386      0.0001
    104  N         16.6590  -17.7000  -44.7750 N.am  387  VAL387     -0.1980
    105  CA        16.2610  -17.1140  -46.0540 C.3   387  VAL387      0.1595
    106  C         14.9820  -17.8530  -46.3640 C.2   387  VAL387      0.2287
    107  O         14.9720  -19.0920  -46.3410 O.2   387  VAL387     -0.2864
    108  CB        17.2460  -17.4320  -47.1720 C.3   387  VAL387      0.0276
    109  CG1       16.7070  -16.8900  -48.5100 C.3   387  VAL387      0.0022
    110  CG2       18.5920  -16.8460  -46.8370 C.3   387  VAL387      0.0022
@<TRIPOS>BOND
     1    73    72    1
     2    70    71    2
     3    70    69    1
     4    67    66    2
     5    68    69    1
     6    54    53    1
     7    51    50    2
     8    66    65    1
     9    72    69    1
    10    72    74    1
    11    52    53    1
    12    52    49    1
    13    50    49    1
    14    53    55    1
    15    49    48    1
    16    65    64    1
    17    59    58    2
    18    93    92    2
    19    95    94    1
    20    56    57    1
    21    64    58   am
    22    58    57    1
    23    48    42   am
    24    57    60    1
    25    92    91    1
    26    94    91    1
    27    43    42    2
    28    42    41    1
    29    91    90    1
    30   109   108    1
    31    60    61    1
    32    62    61    1
    33    40    41    1
    34    41    44    1
    35    61    63    1
    36   108   110    1
    37   108   105    1
    38    38    37    1
    39    81    79    1
    40    47    45    1
    41    44    45    1
    42    45    46    1
    43    39    37    1
    44   106   107    2
    45   106   105    1
    46    37    34    1
    47   105   104    1
    48    75    76    1
    49    79    76    1
    50    79    80    1
    51    76    77    1
    52    33    34    1
    53    34    35    1
    54   104    98   am
    55    35    36    2
    56    31    30    1
    57    99    98    2
    58    98    97    1
    59    77    78    2
    60    14    12   ar
    61    14    13   ar
    62    12    10   ar
    63   102   100    1
    64    26    27    1
    65    30    32    1
    66    30    27    1
    67   100    97    1
    68   100   101    1
    69    97    96    1
    70    13    11   ar
    71    27    28    1
    72    25    23   ar
    73    25    24   ar
    74    10     9   ar
    75    10     8   ar
    76    23    21   ar
    77   101   103    1
    78     9     7   ar
    79    89    87   ar
    80    11     8   ar
    81    24    22   ar
    82    21    20   ar
    83    28    29    2
    84     8     6   ar
    85    87    88   ar
    86    87    86    1
    87    82    83    1
    88    86    83    1
    89     7     6   ar
    90    22    20   ar
    91    20    19    1
    92    83    84    1
    93     6     5    1
    94    16    19    1
    95    16    17    1
    96    16    15    1
    97    17    18    2
    98    84    85    2
    99     5     2    1
   100     2     1    1
   101     2     3    1
   102     3     4    2
