@<TRIPOS>MOLECULE
tmp/1j53A01.pdb
 102 97 0 0 0
SMALL
GASTEIGER

@<TRIPOS>ATOM
      1  N          2.3830   22.0520    4.2430 N.3    12  MET12      -0.1245
      2  CA         3.1900   22.9920    5.0170 C.3    12  MET12       0.1570
      3  C          3.2780   22.5320    6.4670 C.2    12  MET12       0.2261
      4  O          2.4620   21.7300    6.9160 O.2    12  MET12      -0.2867
      5  CB         2.5550   24.3820    4.9630 C.3    12  MET12       0.0387
      6  CG         1.1220   24.4030    5.4700 C.3    12  MET12       0.0595
      7  SD         0.2790   25.9600    5.1460 S.3    12  MET12      -0.1393
      8  CE        -1.1850   25.7850    6.1850 C.3    12  MET12       0.0692
      9  N          8.1190   26.4900    7.7100 N.3    18  HIS18      -0.1241
     10  CA         6.9110   25.9850    7.0640 C.3    18  HIS18       0.1621
     11  C          7.0850   25.1200    5.8210 C.2    18  HIS18       0.2264
     12  O          6.2120   24.3180    5.5040 O.2    18  HIS18      -0.2867
     13  CB         5.9610   27.1440    6.7220 C.3    18  HIS18       0.0745
     14  CG         6.4610   28.0500    5.6360 C.ar   18  HIS18       0.0817
     15  ND1        7.3160   29.1030    5.8760 N.ar   18  HIS18      -0.2268
     16  CD2        6.1970   28.0760    4.3080 C.ar   18  HIS18       0.1154
     17  CE1        7.5540   29.7430    4.7440 C.ar   18  HIS18       0.1986
     18  NE2        6.8870   29.1390    3.7770 N.ar   18  HIS18      -0.2212
     19  N         -7.3590   21.4730   -0.7320 N.3    59  VAL59      -0.1245
     20  CA        -7.3490   22.8550   -1.1890 C.3    59  VAL59       0.1561
     21  C         -7.2450   23.0110   -2.7040 C.2    59  VAL59       0.2260
     22  O         -8.0480   23.7180   -3.3130 O.2    59  VAL59      -0.2867
     23  CB        -6.1860   23.6340   -0.5390 C.3    59  VAL59       0.0252
     24  CG1       -6.0950   25.0340   -1.1340 C.3    59  VAL59       0.0019
     25  CG2       -6.3970   23.7120    0.9670 C.3    59  VAL59       0.0019
     26  N          0.2780   37.1400   -2.0510 N.3    92  HIS92      -0.1226
     27  CA        -0.6090   37.2150   -0.8930 C.3    92  HIS92       0.1752
     28  C         -0.0280   36.3100    0.1920 C.2    92  HIS92       0.2596
     29  O         -0.1350   35.0850    0.1110 O.2    92  HIS92      -0.2718
     30  CB        -2.0200   36.7660   -1.2730 C.3    92  HIS92       0.0759
     31  CG        -3.0980   37.5280   -0.5670 C.ar   92  HIS92       0.0818
     32  ND1       -3.1850   38.9020   -0.6160 N.ar   92  HIS92      -0.2268
     33  CD2       -4.1250   37.1140    0.2130 C.ar   92  HIS92       0.1154
     34  CE1       -4.2180   39.3030    0.1030 C.ar   92  HIS92       0.1986
     35  NE2       -4.8060   38.2370    0.6160 N.ar   92  HIS92      -0.2212
     36  N          0.5770   36.9310    1.2040 N.am   93  ASN93      -0.1974
     37  CA         1.2500   36.2240    2.2950 C.3    93  ASN93       0.1688
     38  C          2.5800   35.7990    1.6700 C.2    93  ASN93       0.2292
     39  O          2.9250   34.6190    1.6290 O.2    93  ASN93      -0.2864
     40  CB         0.4370   35.0010    2.7570 C.3    93  ASN93       0.1181
     41  CG         1.0160   34.3390    4.0030 C.2    93  ASN93       0.2629
     42  OD1        1.7650   34.9500    4.7530 O.2    93  ASN93      -0.2716
     43  ND2        0.6480   33.0870    4.2340 N.am   93  ASN93      -0.0877
     44  N          5.7340   35.7770    2.4870 N.3    95  ALA95      -0.1231
     45  CA         6.6710   34.9260    3.2150 C.3    95  ALA95       0.1694
     46  C          6.4480   33.4410    2.9400 C.2    95  ALA95       0.2592
     47  O          7.3990   32.6590    2.9380 O.2    95  ALA95      -0.2718
     48  CB         6.5730   35.2020    4.7140 C.3    95  ALA95       0.0304
     49  N          5.2000   33.0470    2.7070 N.am   96  PHE96      -0.1976
     50  CA         4.8990   31.6450    2.4320 C.3    96  PHE96       0.1639
     51  C          5.5800   31.1690    1.1530 C.2    96  PHE96       0.2290
     52  O          6.4060   30.2570    1.1750 O.2    96  PHE96      -0.2864
     53  CB         3.3880   31.4300    2.2920 C.3    96  PHE96       0.0560
     54  CG         3.0050   30.0170    1.9400 C.ar   96  PHE96      -0.0200
     55  CD1        3.0190   29.0120    2.9070 C.ar   96  PHE96      -0.0042
     56  CD2        2.6680   29.6800    0.6350 C.ar   96  PHE96      -0.0042
     57  CE1        2.7060   27.6950    2.5760 C.ar   96  PHE96      -0.0003
     58  CE2        2.3540   28.3600    0.2900 C.ar   96  PHE96      -0.0003
     59  CZ         2.3740   27.3680    1.2640 C.ar   96  PHE96      -0.0000
     60  N         -1.0340   40.8480    1.2270 N.3   125  LEU125     -0.1245
     61  CA        -1.8790   40.5990    2.3880 C.3   125  LEU125      0.1561
     62  C         -1.5860   41.6590    3.4440 C.2   125  LEU125      0.2260
     63  O         -2.4900   42.1180    4.1450 O.2   125  LEU125     -0.2867
     64  CB        -1.6270   39.1960    2.9510 C.3   125  LEU125      0.0270
     65  CG        -2.3920   38.8010    4.2200 C.3   125  LEU125      0.0019
     66  CD1       -3.8880   39.0230    4.0400 C.3   125  LEU125      0.0001
     67  CD2       -2.1060   37.3430    4.5360 C.3   125  LEU125      0.0001
     68  N         -8.6270   37.7780    3.2590 N.3   138  SER138     -0.1202
     69  CA        -8.2370   36.6240    2.4550 C.3   138  SER138      0.2020
     70  C         -8.4730   37.0660    1.0160 C.2   138  SER138      0.2618
     71  O         -9.1600   38.0570    0.7780 O.2   138  SER138     -0.2717
     72  CB        -9.1330   35.4250    2.7630 C.3   138  SER138      0.2103
     73  OG       -10.4770   35.6990    2.4010 O.3   138  SER138     -0.2182
     74  N         -7.9100   36.3410    0.0560 N.am  139  LEU139     -0.1979
     75  CA        -8.0960   36.6970   -1.3430 C.3   139  LEU139      0.1596
     76  C         -9.5840   36.6940   -1.7000 C.2   139  LEU139      0.2287
     77  O        -10.0500   37.5620   -2.4360 O.2   139  LEU139     -0.2864
     78  CB        -7.3300   35.7190   -2.2410 C.3   139  LEU139      0.0297
     79  CG        -7.3630   35.9760   -3.7510 C.3   139  LEU139      0.0022
     80  CD1       -6.9070   37.3970   -4.0620 C.3   139  LEU139      0.0001
     81  CD2       -6.4640   34.9620   -4.4460 C.3   139  LEU139      0.0001
     82  N        -13.2080   29.4630   -8.6440 N.3   153  ARG153     -0.1245
     83  CA       -12.2080   29.1030   -7.6500 C.3   153  ARG153      0.1563
     84  C        -12.6970   28.1890   -6.5270 C.2   153  ARG153      0.2260
     85  O        -12.4090   28.4400   -5.3570 O.2   153  ARG153     -0.2867
     86  CB       -11.5980   30.3680   -7.0350 C.3   153  ARG153      0.0307
     87  CG       -10.2550   30.1230   -6.3580 C.3   153  ARG153      0.0489
     88  CD        -9.8440   31.2660   -5.4390 C.3   153  ARG153      0.2205
     89  NE        -8.5290   31.0200   -4.8500 N.pl3 153  ARG153     -0.0865
     90  CZ        -8.0820   31.5970   -3.7380 C.cat 153  ARG153      0.5346
     91  NH1       -8.8480   32.4600   -3.0850 N.pl3 153  ARG153      0.1354
     92  NH2       -6.8730   31.3050   -3.2740 N.pl3 153  ARG153      0.1354
     93  N         -8.3990   25.8970   -5.4020 N.3   156  HIS156     -0.1241
     94  CA        -7.3910   26.9020   -5.6900 C.3   156  HIS156      0.1621
     95  C         -6.3870   26.3810   -6.7120 C.2   156  HIS156      0.2264
     96  O         -6.1090   25.1870   -6.7650 O.2   156  HIS156     -0.2867
     97  CB        -6.6480   27.2810   -4.4130 C.3   156  HIS156      0.0745
     98  CG        -7.5250   27.8190   -3.3260 C.ar  156  HIS156      0.0817
     99  ND1       -7.0220   28.2570   -2.1190 N.ar  156  HIS156     -0.2268
    100  CD2       -8.8680   27.9820   -3.2540 C.ar  156  HIS156      0.1154
    101  CE1       -8.0160   28.6650   -1.3510 C.ar  156  HIS156      0.1986
    102  NE2       -9.1470   28.5090   -2.0160 N.ar  156  HIS156     -0.2212
@<TRIPOS>BOND
     1    82    83    1
     2    83    86    1
     3    83    84    1
     4    86    87    1
     5    96    95    2
     6    95    94    1
     7    84    85    2
     8    87    88    1
     9    94    93    1
    10    94    97    1
    11    88    89    1
    12    89    90    2
    13    81    79    1
    14    97    98    1
    15    80    79    1
    16    79    78    1
    17    90    92    1
    18    90    91    1
    19    98   100   ar
    20    98    99   ar
    21    22    21    2
    22   100   102   ar
    23    21    20    1
    24    77    76    2
    25    78    75    1
    26    99   101   ar
    27    26    27    1
    28   102   101   ar
    29    76    75    1
    30    75    74    1
    31    30    27    1
    32    30    31    1
    33    20    19    1
    34    20    23    1
    35    24    23    1
    36    27    28    1
    37    32    31   ar
    38    32    34   ar
    39    31    33   ar
    40    23    25    1
    41    74    70   am
    42    34    35   ar
    43    29    28    2
    44    28    36   am
    45    33    35   ar
    46    58    56   ar
    47    58    59   ar
    48    56    54   ar
    49    71    70    2
    50    70    69    1
    51    51    52    2
    52    51    50    1
    53    36    37    1
    54    60    61    1
    55    59    57   ar
    56    39    38    2
    57    38    37    1
    58    54    53    1
    59    54    55   ar
    60    53    50    1
    61    37    40    1
    62    61    64    1
    63    61    62    1
    64    73    72    1
    65    50    49    1
    66    69    72    1
    67    69    68    1
    68    44    45    1
    69    57    55   ar
    70    49    46   am
    71    40    41    1
    72    47    46    2
    73    46    45    1
    74    64    65    1
    75    45    48    1
    76    62    63    2
    77    18    16   ar
    78    18    17   ar
    79    41    43   am
    80    41    42    2
    81    66    65    1
    82    65    67    1
    83     1     2    1
    84    16    14   ar
    85    17    15   ar
    86     5     2    1
    87     5     6    1
    88     2     3    1
    89     7     6    1
    90     7     8    1
    91    12    11    2
    92    14    15   ar
    93    14    13    1
    94    11    10    1
    95     3     4    2
    96    13    10    1
    97    10     9    1
