@<TRIPOS>MOLECULE
tmp/1j54A00.pdb
 114 109 0 0 0
SMALL
GASTEIGER

@<TRIPOS>ATOM
      1  N          1.8280   32.9950   -7.4080 N.3     6  ASP6       -0.1225
      2  CA         1.2410   32.0960   -6.4260 C.3     6  ASP6        0.1805
      3  C          1.7800   30.7060   -6.6980 C.2     6  ASP6        0.2598
      4  O          2.2270   30.4140   -7.8070 O.2     6  ASP6       -0.2718
      5  CB        -0.2840   32.0700   -6.5310 C.3     6  ASP6        0.1424
      6  CG        -0.9220   31.3220   -5.3780 C.2     6  ASP6        0.3668
      7  OD1       -0.5910   31.6520   -4.2210 O.co2   6  ASP6       -0.2456
      8  OD2       -1.7450   30.4090   -5.6210 O.co2   6  ASP6       -0.2456
      9  N          1.7420   29.8520   -5.6860 N.am    7  THR7       -0.1939
     10  CA         2.2120   28.4810   -5.8430 C.3     7  THR7        0.2028
     11  C          1.3000   27.5420   -5.0700 C.2     7  THR7        0.2642
     12  O          0.6280   27.9550   -4.1240 O.2     7  THR7       -0.2714
     13  CB         3.6320   28.2730   -5.2720 C.3     7  THR7        0.1808
     14  OG1        3.5920   28.3770   -3.8420 O.3     7  THR7       -0.2208
     15  CG2        4.5980   29.3140   -5.8150 C.3     7  THR7        0.0379
     16  N          1.2650   26.2840   -5.4930 N.am    8  GLU8       -0.1963
     17  CA         0.5080   25.2650   -4.7780 C.3     8  GLU8        0.1733
     18  C          1.5990   24.2950   -4.3350 C.2     8  GLU8        0.2617
     19  O          2.6210   24.1550   -5.0140 O.2     8  GLU8       -0.2715
     20  CB        -0.5150   24.5730   -5.6820 C.3     8  GLU8        0.0429
     21  CG        -1.5430   25.5280   -6.2810 C.3     8  GLU8        0.1163
     22  CD        -2.3080   26.3260   -5.2400 C.2     8  GLU8        0.3649
     23  OE1       -2.4370   25.8600   -4.0890 O.co2   8  GLU8       -0.2457
     24  OE2       -2.7960   27.4230   -5.5830 O.co2   8  GLU8       -0.2457
     25  N          1.3960   23.6360   -3.2010 N.am    9  THR9       -0.1951
     26  CA         2.4030   22.7300   -2.6620 C.3     9  THR9        0.1897
     27  C          1.8110   21.4160   -2.1780 C.2     9  THR9        0.2313
     28  O          0.6070   21.1920   -2.2640 O.2     9  THR9       -0.2863
     29  CB         3.1300   23.3810   -1.4710 C.3     9  THR9        0.1794
     30  OG1        2.2210   23.5030   -0.3700 O.3     9  THR9       -0.2208
     31  CG2        3.6330   24.7720   -1.8460 C.3     9  THR9        0.0378
     32  N          1.8130   20.6270    0.7980 N.3    11  GLY11      -0.1210
     33  CA         1.3280   20.9120    2.1360 C.3    11  GLY11       0.1956
     34  C          2.2290   21.9200    2.8310 C.2    11  GLY11       0.2611
     35  O          2.9330   22.6850    2.1710 O.2    11  GLY11      -0.2717
     36  N          2.2220   21.9110    4.1610 N.am   12  MET12      -0.1979
     37  CA         3.0300   22.8420    4.9430 C.3    12  MET12       0.1605
     38  C          3.1160   22.3690    6.3930 C.2    12  MET12       0.2287
     39  O          2.3050   21.5540    6.8330 O.2    12  MET12      -0.2864
     40  CB         2.3980   24.2340    4.8980 C.3    12  MET12       0.0413
     41  CG         0.9470   24.2350    5.3470 C.3    12  MET12       0.0598
     42  SD         0.1330   25.8220    5.1190 S.3    12  MET12      -0.1393
     43  CE        -1.2650   25.6550    6.2330 C.3    12  MET12       0.0692
     44  N         -4.7720   17.4030    3.4160 N.3    55  GLU55      -0.1231
     45  CA        -5.2300   18.7710    3.6150 C.3    55  GLU55       0.1699
     46  C         -4.9690   19.6160    2.3730 C.2    55  GLU55       0.2592
     47  O         -5.8360   20.3700    1.9280 O.2    55  GLU55      -0.2718
     48  CB        -4.5250   19.3950    4.8170 C.3    55  GLU55       0.0402
     49  CG        -4.9940   20.8010    5.1470 C.3    55  GLU55       0.1161
     50  CD        -4.2990   21.3680    6.3680 C.2    55  GLU55       0.3649
     51  OE1       -4.3020   20.6910    7.4170 O.co2  55  GLU55      -0.2457
     52  OE2       -3.7560   22.4900    6.2830 O.co2  55  GLU55      -0.2457
     53  N         -3.7690   19.4860    1.8180 N.am   56  ALA56      -0.1980
     54  CA        -3.3990   20.2340    0.6240 C.3    56  ALA56       0.1597
     55  C         -4.2900   19.8300   -0.5450 C.2    56  ALA56       0.2287
     56  O         -4.7590   20.6810   -1.3000 O.2    56  ALA56      -0.2864
     57  CB        -1.9320   19.9840    0.2820 C.3    56  ALA56       0.0319
     58  N         -7.5080   21.4300   -0.8540 N.3    59  VAL59      -0.1231
     59  CA        -7.4690   22.8190   -1.2870 C.3    59  VAL59       0.1692
     60  C         -7.3520   23.0060   -2.8000 C.2    59  VAL59       0.2592
     61  O         -8.1070   23.7740   -3.3950 O.2    59  VAL59      -0.2718
     62  CB        -6.2980   23.5650   -0.6100 C.3    59  VAL59       0.0266
     63  CG1       -6.1880   24.9790   -1.1610 C.3    59  VAL59       0.0020
     64  CG2       -6.5120   23.5960    0.8950 C.3    59  VAL59       0.0020
     65  N         -6.4130   22.3000   -3.4230 N.am   60  HIS60      -0.1976
     66  CA        -6.1930   22.4420   -4.8600 C.3    60  HIS60       0.1656
     67  C         -6.6730   21.2830   -5.7270 C.2    60  HIS60       0.2291
     68  O         -6.8060   21.4240   -6.9450 O.2    60  HIS60      -0.2864
     69  CB        -4.7060   22.7050   -5.1200 C.3    60  HIS60       0.0771
     70  CG        -3.7930   21.6710   -4.5330 C.ar   60  HIS60       0.0820
     71  ND1       -2.7990   21.9810   -3.6290 N.ar   60  HIS60      -0.2267
     72  CD2       -3.7100   20.3360   -4.7400 C.ar   60  HIS60       0.1154
     73  CE1       -2.1420   20.8810   -3.3070 C.ar   60  HIS60       0.1986
     74  NE2       -2.6750   19.8690   -3.9680 N.ar   60  HIS60      -0.2212
     75  N          5.2070   32.8940    2.6380 N.3    96  PHE96      -0.1241
     76  CA         4.8880   31.4990    2.3680 C.3    96  PHE96       0.1605
     77  C          5.5580   31.0240    1.0810 C.2    96  PHE96       0.2264
     78  O          6.3670   30.0990    1.0920 O.2    96  PHE96      -0.2867
     79  CB         3.3740   31.3030    2.2410 C.3    96  PHE96       0.0534
     80  CG         2.9800   29.8910    1.9180 C.ar   96  PHE96      -0.0203
     81  CD1        2.9750   28.9130    2.9070 C.ar   96  PHE96      -0.0042
     82  CD2        2.6880   29.5210    0.6090 C.ar   96  PHE96      -0.0042
     83  CE1        2.6910   27.5840    2.5980 C.ar   96  PHE96      -0.0003
     84  CE2        2.4040   28.1920    0.2860 C.ar   96  PHE96      -0.0003
     85  CZ         2.4060   27.2220    1.2840 C.ar   96  PHE96      -0.0000
     86  N        -13.2480   29.3890   -8.6050 N.3   153  ARG153     -0.1245
     87  CA       -12.2360   29.0380   -7.6190 C.3   153  ARG153      0.1563
     88  C        -12.6970   28.1280   -6.4810 C.2   153  ARG153      0.2260
     89  O        -12.3320   28.3500   -5.3260 O.2   153  ARG153     -0.2867
     90  CB       -11.6260   30.3110   -7.0230 C.3   153  ARG153      0.0307
     91  CG       -10.2600   30.0860   -6.3960 C.3   153  ARG153      0.0489
     92  CD        -9.8830   31.1870   -5.4150 C.3   153  ARG153      0.2205
     93  NE        -8.5410   30.9770   -4.8750 N.pl3 153  ARG153     -0.0865
     94  CZ        -8.0900   31.5230   -3.7510 C.cat 153  ARG153      0.5346
     95  NH1       -8.8760   32.3150   -3.0360 N.pl3 153  ARG153      0.1354
     96  NH2       -6.8550   31.2700   -3.3370 N.pl3 153  ARG153      0.1354
     97  N         -8.4670   25.8210   -5.4290 N.3   156  HIS156     -0.1241
     98  CA        -7.4390   26.8070   -5.7340 C.3   156  HIS156      0.1621
     99  C         -6.4740   26.2930   -6.7960 C.2   156  HIS156      0.2264
    100  O         -6.2380   25.0950   -6.9010 O.2   156  HIS156     -0.2867
    101  CB        -6.6560   27.1540   -4.4650 C.3   156  HIS156      0.0745
    102  CG        -7.4970   27.7350   -3.3680 C.ar  156  HIS156      0.0817
    103  ND1       -6.9690   28.1260   -2.1560 N.ar  156  HIS156     -0.2268
    104  CD2       -8.8250   27.9870   -3.2980 C.ar  156  HIS156      0.1154
    105  CE1       -7.9360   28.5940   -1.3870 C.ar  156  HIS156      0.1986
    106  NE2       -9.0720   28.5210   -2.0560 N.ar  156  HIS156     -0.2212
    107  N         -5.1820   31.5620   -9.0840 N.3   161  ASP161     -0.1239
    108  CA        -5.0170   32.4540   -7.9410 C.3   161  ASP161      0.1674
    109  C         -4.1850   33.6880   -8.2660 C.2   161  ASP161      0.2266
    110  O         -4.4590   34.7760   -7.7640 O.2   161  ASP161     -0.2867
    111  CB        -4.3660   31.7110   -6.7680 C.3   161  ASP161      0.1410
    112  CG        -5.2860   30.6860   -6.1340 C.2   161  ASP161      0.3668
    113  OD1       -6.4170   30.4970   -6.6330 O.co2 161  ASP161     -0.2456
    114  OD2       -4.8740   30.0650   -5.1280 O.co2 161  ASP161     -0.2456
@<TRIPOS>BOND
     1   107   108    1
     2    86    87    1
     3   109   108    1
     4   109   110    2
     5   108   111    1
     6     4     3    2
     7    87    90    1
     8    87    88    1
     9     1     2    1
    10    90    91    1
    11    68    67    2
    12   100    99    2
    13    99    98    1
    14   111   112    1
    15     3     2    1
    16     3     9   am
    17   113   112   ar
    18     5     2    1
    19     5     6    1
    20    88    89    2
    21    91    92    1
    22    21    20    1
    23    21    22    1
    24   112   114   ar
    25    10     9    1
    26    10    13    1
    27    10    11    1
    28    15    13    1
    29    98    97    1
    30    98   101    1
    31    67    66    1
    32    20    17    1
    33     8     6   ar
    34    24    22   ar
    35    16    11   am
    36    16    17    1
    37    92    93    1
    38     6     7   ar
    39    13    14    1
    40    22    23   ar
    41    69    66    1
    42    69    70    1
    43    11    12    2
    44    19    18    2
    45    93    94    2
    46    66    65    1
    47    17    18    1
    48    72    70   ar
    49    72    74   ar
    50    70    71   ar
    51   101   102    1
    52    18    25   am
    53    74    73   ar
    54    94    96    1
    55    94    95    1
    56    71    73   ar
    57    65    60   am
    58    61    60    2
    59   102   104   ar
    60   102   103   ar
    61   104   106   ar
    62    25    26    1
    63    60    59    1
    64    26    27    1
    65    26    29    1
    66    28    27    2
    67   103   105   ar
    68   106   105   ar
    69    31    29    1
    70    29    30    1
    71    56    55    2
    72    59    58    1
    73    59    62    1
    74    63    62    1
    75    62    64    1
    76    55    54    1
    77    57    54    1
    78    84    82   ar
    79    84    85   ar
    80    82    80   ar
    81    54    53    1
    82    32    33    1
    83    77    78    2
    84    77    76    1
    85    85    83   ar
    86    53    46   am
    87    80    79    1
    88    80    81   ar
    89    47    46    2
    90    33    34    1
    91    35    34    2
    92    79    76    1
    93    76    75    1
    94    46    45    1
    95    83    81   ar
    96    34    36   am
    97    44    45    1
    98    45    48    1
    99    36    37    1
   100    48    49    1
   101    40    37    1
   102    40    41    1
   103    37    38    1
   104    42    41    1
   105    42    43    1
   106    49    50    1
   107    52    50   ar
   108    50    51   ar
   109    38    39    2
