@<TRIPOS>MOLECULE
tmp/1j5iA00.pdb
 140 132 0 0 0
SMALL
GASTEIGER

@<TRIPOS>ATOM
      1  N         -6.7130    4.9570   -5.3110 N.3    33  ASP33      -0.1239
      2  CA        -5.6070    4.2020   -5.8690 C.3    33  ASP33       0.1674
      3  C         -4.9820    3.3330   -4.7750 C.2    33  ASP33       0.2266
      4  O         -4.3380    3.8480   -3.8630 O.2    33  ASP33      -0.2867
      5  CB        -4.5210    5.1330   -6.4120 C.3    33  ASP33       0.1410
      6  CG        -4.8690    5.8380   -7.7250 C.2    33  ASP33       0.3668
      7  OD1       -4.3850    6.9770   -7.9020 O.co2  33  ASP33      -0.2456
      8  OD2       -5.6110    5.2220   -8.5200 O.co2  33  ASP33      -0.2456
      9  N         -2.4100    0.7640   -3.1390 N.3    35  GLY35      -0.1225
     10  CA        -0.9770    0.5500   -3.2550 C.3    35  GLY35       0.1811
     11  C         -0.2960    0.6430   -1.8870 C.2    35  GLY35       0.2280
     12  O         -0.8560    1.2070   -0.9490 O.2    35  GLY35      -0.2866
     13  N          2.2090    2.3220    0.1630 N.3    37  CYS37      -0.1235
     14  CA         3.0140    3.5270    0.2740 C.3    37  CYS37       0.1677
     15  C          3.6240    3.5710    1.6750 C.2    37  CYS37       0.2270
     16  O          3.0390    3.0570    2.6280 O.2    37  CYS37      -0.2867
     17  CB         2.1980    4.7850   -0.0330 C.3    37  CYS37       0.0956
     18  SG         3.1850    6.2330   -0.5570 S.3    37  CYS37      -0.0801
     19  N          7.4510    5.3920    3.9150 N.3    39  TRP39      -0.1241
     20  CA         8.7350    6.0680    3.8570 C.3    39  TRP39       0.1605
     21  C          9.7780    5.0620    3.3650 C.2    39  TRP39       0.2264
     22  O         10.1160    4.1170    4.0750 O.2    39  TRP39      -0.2867
     23  CB         9.0920    6.6860    5.2100 C.3    39  TRP39       0.0550
     24  CG         7.8770    7.0890    6.0500 C.ar   39  TRP39       0.0003
     25  CD1        7.2130    6.3480    6.9460 C.ar   39  TRP39       0.0946
     26  CD2        7.2070    8.3660    6.0330 C.ar   39  TRP39       0.0152
     27  NE1        6.1670    7.0510    7.5090 N.ar   39  TRP39      -0.2442
     28  CE2        6.1630    8.3180    6.9340 C.ar   39  TRP39       0.0810
     29  CE3        7.4720    9.5230    5.2810 C.ar   39  TRP39       0.0012
     30  CZ2        5.3010    9.3970    7.1690 C.ar   39  TRP39       0.0191
     31  CZ3        6.6030   10.5920    5.5280 C.ar   39  TRP39       0.0001
     32  CH2        5.5460   10.5610    6.4310 C.ar   39  TRP39       0.0015
     33  N          8.4020    9.8420    2.2590 N.3    45  LEU45      -0.1245
     34  CA         7.2270    9.0660    1.8990 C.3    45  LEU45       0.1561
     35  C          7.3040    8.6930    0.4170 C.2    45  LEU45       0.2260
     36  O          7.0860    9.5380   -0.4510 O.2    45  LEU45      -0.2867
     37  CB         5.9500    9.8220    2.2770 C.3    45  LEU45       0.0270
     38  CG         4.6700    8.9860    2.3370 C.3    45  LEU45       0.0019
     39  CD1        4.4260    8.4570    3.7530 C.3    45  LEU45       0.0001
     40  CD2        3.4730    9.7770    1.8060 C.3    45  LEU45       0.0001
     41  N          6.0720    5.7680   -2.5080 N.3    47  CYS47      -0.1235
     42  CA         5.1230    4.7120   -2.8190 C.3    47  CYS47       0.1677
     43  C          5.8140    3.7030   -3.7370 C.2    47  CYS47       0.2270
     44  O          6.7770    4.0400   -4.4260 O.2    47  CYS47      -0.2867
     45  CB         3.8410    5.2690   -3.4430 C.3    47  CYS47       0.0956
     46  SG         3.0940    6.6720   -2.5360 S.3    47  CYS47      -0.0801
     47  N          1.9950    0.1520   -6.3550 N.3    51  ASP51      -0.1239
     48  CA         1.0160    0.7670   -5.4740 C.3    51  ASP51       0.1674
     49  C         -0.0580    1.4590   -6.3170 C.2    51  ASP51       0.2266
     50  O         -0.8770    2.2090   -5.7890 O.2    51  ASP51      -0.2867
     51  CB         1.6690    1.8240   -4.5810 C.3    51  ASP51       0.1410
     52  CG         0.9290    3.1610   -4.5160 C.2    51  ASP51       0.3668
     53  OD1        0.1820    3.3500   -3.5310 O.co2  51  ASP51      -0.2456
     54  OD2        1.1270    3.9670   -5.4510 O.co2  51  ASP51      -0.2456
     55  N          9.2080    5.4090   -5.1130 N.3    76  PHE76      -0.1241
     56  CA         9.2820    6.7830   -5.5800 C.3    76  PHE76       0.1605
     57  C          8.7730    7.7540   -4.5120 C.2    76  PHE76       0.2264
     58  O          7.6760    7.5790   -3.9840 O.2    76  PHE76      -0.2867
     59  CB         8.3840    6.8860   -6.8140 C.3    76  PHE76       0.0534
     60  CG         7.0790    7.6470   -6.5740 C.ar   76  PHE76      -0.0203
     61  CD1        7.0440    8.9990   -6.7330 C.ar   76  PHE76      -0.0042
     62  CD2        5.9580    6.9750   -6.1990 C.ar   76  PHE76      -0.0042
     63  CE1        5.8320    9.7060   -6.5100 C.ar   76  PHE76      -0.0003
     64  CE2        4.7470    7.6850   -5.9760 C.ar   76  PHE76      -0.0003
     65  CZ         4.7100    9.0340   -6.1360 C.ar   76  PHE76      -0.0000
     66  N          7.1750   10.8830   -2.7230 N.3    78  PHE78      -0.1241
     67  CA         5.9510   11.6080   -3.0160 C.3    78  PHE78       0.1605
     68  C          6.2490   13.0720   -3.3500 C.2    78  PHE78       0.2264
     69  O          5.4180   13.7610   -3.9380 O.2    78  PHE78      -0.2867
     70  CB         5.0850   11.5520   -1.7560 C.3    78  PHE78       0.0534
     71  CG         5.3520   12.6880   -0.7650 C.ar   78  PHE78      -0.0203
     72  CD1        6.3310   12.5570    0.1710 C.ar   78  PHE78      -0.0042
     73  CD2        4.6100   13.8260   -0.8190 C.ar   78  PHE78      -0.0042
     74  CE1        6.5780   13.6100    1.0900 C.ar   78  PHE78      -0.0003
     75  CE2        4.8590   14.8800    0.1000 C.ar   78  PHE78      -0.0003
     76  CZ         5.8370   14.7490    1.0350 C.ar   78  PHE78      -0.0000
     77  N          3.0100    0.3890    4.0210 N.3    94  GLN94      -0.1245
     78  CA         1.5950    0.4180    4.3500 C.3    94  GLN94       0.1566
     79  C          0.7520    0.1940    3.0920 C.2    94  GLN94       0.2260
     80  O          0.7850    1.0030    2.1660 O.2    94  GLN94      -0.2867
     81  CB         1.2170    1.7330    5.0350 C.3    94  GLN94       0.0367
     82  CG         1.9060    1.8600    6.3950 C.3    94  GLN94       0.0905
     83  CD         2.3010    3.3110    6.6760 C.2    94  GLN94       0.2608
     84  OE1        2.0780    4.2080    5.8800 O.2    94  GLN94      -0.2717
     85  NE2        2.8970    3.4910    7.8510 N.am   94  GLN94      -0.0878
     86  N         -2.4630    0.3950    1.3090 N.3    96  GLY96      -0.1210
     87  CA        -3.7290    1.1090    1.3670 C.3    96  GLY96       0.1956
     88  C         -3.9560    1.9200    0.0890 C.2    96  GLY96       0.2612
     89  O         -3.1460    1.8710   -0.8340 O.2    96  GLY96      -0.2717
     90  N         -5.0650    2.6460    0.0790 N.am   97  LEU97      -0.1965
     91  CA        -5.4100    3.4670   -1.0690 C.3    97  LEU97       0.1728
     92  C         -5.1820    4.9410   -0.7250 C.2    97  LEU97       0.2617
     93  O         -5.2070    5.3180    0.4450 O.2    97  LEU97      -0.2715
     94  CB        -6.8330    3.1590   -1.5390 C.3    97  LEU97       0.0311
     95  CG        -7.7970    2.6460   -0.4670 C.3    97  LEU97       0.0022
     96  CD1       -7.4110    1.2380   -0.0120 C.3    97  LEU97       0.0001
     97  CD2       -7.8850    3.6240    0.7050 C.3    97  LEU97       0.0001
     98  N         -4.9660    5.7310   -1.7660 N.am   98  SER98      -0.1936
     99  CA        -4.7330    7.1550   -1.5850 C.3    98  SER98       0.2055
    100  C         -5.9870    7.9420   -1.9770 C.2    98  SER98       0.2643
    101  O         -6.7320    7.5280   -2.8640 O.2    98  SER98      -0.2714
    102  CB        -3.5330    7.6250   -2.4120 C.3    98  SER98       0.2130
    103  OG        -3.9230    8.4870   -3.4770 O.3    98  SER98      -0.2179
    104  N         -6.1780    9.0620   -1.2970 N.am   99  ASP99      -0.1971
    105  CA        -7.3280    9.9100   -1.5600 C.3    99  ASP99       0.1709
    106  C         -6.9300   11.0050   -2.5550 C.2    99  ASP99       0.2293
    107  O         -5.7480   11.3060   -2.7130 O.2    99  ASP99      -0.2864
    108  CB        -7.8150   10.5920   -0.2800 C.3    99  ASP99       0.1436
    109  CG        -7.3340    9.9440    1.0200 C.2    99  ASP99       0.3671
    110  OD1       -7.7070    8.7730    1.2440 O.co2  99  ASP99      -0.2456
    111  OD2       -6.6050   10.6360    1.7620 O.co2  99  ASP99      -0.2456
    112  N         -5.3890   14.5030   -0.8730 N.3   102  GLY102     -0.1210
    113  CA        -3.9920   14.7200   -0.5350 C.3   102  GLY102      0.1956
    114  C         -3.6970   14.2670    0.8960 C.2   102  GLY102      0.2612
    115  O         -2.9660   14.9350    1.6250 O.2   102  GLY102     -0.2717
    116  N         -4.2810   13.1320    1.2550 N.am  103  ASN103     -0.1960
    117  CA        -4.0910   12.5820    2.5870 C.3   103  ASN103      0.1819
    118  C         -3.8620   11.0730    2.4820 C.2   103  ASN103      0.2621
    119  O         -4.2060   10.4590    1.4720 O.2   103  ASN103     -0.2715
    120  CB        -5.3230   12.8130    3.4600 C.3   103  ASN103      0.1195
    121  CG        -6.0860   14.0620    3.0120 C.2   103  ASN103      0.2630
    122  OD1       -7.2580   14.0170    2.6690 O.2   103  ASN103     -0.2716
    123  ND2       -5.3620   15.1770    3.0340 N.am  103  ASN103     -0.0877
    124  N         -3.2820   10.5190    3.5370 N.am  104  GLY104     -0.1954
    125  CA        -3.0040    9.0930    3.5760 C.3   104  GLY104      0.1869
    126  C         -3.5290    8.4680    4.8690 C.2   104  GLY104      0.2309
    127  O         -2.7480    8.0160    5.7060 O.2   104  GLY104     -0.2863
    128  N         -5.6550    5.8320    4.9430 N.3   106  GLU106     -0.1231
    129  CA        -5.6420    4.3890    4.7620 C.3   106  GLU106      0.1699
    130  C         -4.2180    3.9010    4.4920 C.2   106  GLU106      0.2592
    131  O         -3.4160    4.6130    3.8890 O.2   106  GLU106     -0.2718
    132  CB        -6.5880    3.9700    3.6340 C.3   106  GLU106      0.0402
    133  CG        -7.8280    3.2720    4.1910 C.3   106  GLU106      0.1161
    134  CD        -8.5010    4.1240    5.2680 C.2   106  GLU106      0.3649
    135  OE1       -8.0760    4.0010    6.4370 O.co2 106  GLU106     -0.2457
    136  OE2       -9.4260    4.8810    4.8990 O.co2 106  GLU106     -0.2457
    137  N         -3.9430    2.6890    4.9530 N.am  107  GLY107     -0.1957
    138  CA        -2.6310    2.0980    4.7700 C.3   107  GLY107      0.1869
    139  C         -2.2260    1.2690    5.9920 C.2   107  GLY107      0.2309
    140  O         -1.9610    1.8190    7.0590 O.2   107  GLY107     -0.2863
@<TRIPOS>BOND
     1     8     6   ar
     2     7     6   ar
     3     6     5    1
     4    59    60    1
     5    59    56    1
     6    61    60   ar
     7    61    63   ar
     8    60    62   ar
     9    63    65   ar
    10     5     2    1
    11    47    48    1
    12    49    50    2
    13    49    48    1
    14    62    64   ar
    15    65    64   ar
    16     2     1    1
    17     2     3    1
    18    56    55    1
    19    56    57    1
    20    48    51    1
    21    54    52   ar
    22     3     4    2
    23    51    52    1
    24    52    53   ar
    25    57    58    2
    26    44    43    2
    27    69    68    2
    28    43    42    1
    29   103   102    1
    30    45    42    1
    31    45    46    1
    32    68    67    1
    33    10     9    1
    34    10    11    1
    35    67    66    1
    36    67    70    1
    37   101   100    2
    38    42    41    1
    39   107   106    2
    40   106   105    1
    41    46    18    1
    42   102    99    1
    43   100    99    1
    44   100   104   am
    45    11    12    2
    46    98    99    1
    47    98    92   am
    48    70    71    1
    49   105   104    1
    50   105   108    1
    51    94    91    1
    52    94    95    1
    53    91    92    1
    54    91    90    1
    55   112   113    1
    56    89    88    2
    57    73    71   ar
    58    73    75   ar
    59    71    72   ar
    60    92    93    2
    61    18    17    1
    62   113   114    1
    63    95    96    1
    64    95    97    1
    65    36    35    2
    66   108   109    1
    67    17    14    1
    68    90    88   am
    69    88    87    1
    70    75    76   ar
    71    13    14    1
    72    72    74   ar
    73    14    15    1
    74    35    34    1
    75   114   116   am
    76   114   115    2
    77   109   110   ar
    78   109   111   ar
    79    76    74   ar
    80   116   117    1
    81    86    87    1
    82   119   118    2
    83    15    16    2
    84    40    38    1
    85    34    33    1
    86    34    37    1
    87    80    79    2
    88    37    38    1
    89    38    39    1
    90   118   117    1
    91   118   124   am
    92   117   120    1
    93   122   121    2
    94   121   123   am
    95   121   120    1
    96    79    78    1
    97    21    20    1
    98    21    22    2
    99   124   125    1
   100   125   126    1
   101   132   133    1
   102   132   129    1
   103    20    19    1
   104    20    23    1
   105   131   130    2
   106    77    78    1
   107   133   134    1
   108    78    81    1
   109   130   129    1
   110   130   137   am
   111   129   128    1
   112   138   137    1
   113   138   139    1
   114   126   127    2
   115   136   134   ar
   116    81    82    1
   117    23    24    1
   118   134   135   ar
   119    29    31   ar
   120    29    26   ar
   121    31    32   ar
   122    84    83    2
   123   139   140    2
   124    26    24   ar
   125    26    28   ar
   126    24    25   ar
   127    82    83    1
   128    32    30   ar
   129    83    85   am
   130    28    30   ar
   131    28    27   ar
   132    25    27   ar
