@<TRIPOS>MOLECULE
tmp/1j6zA01.pdb
 109 104 0 0 0
SMALL
GASTEIGER

@<TRIPOS>ATOM
      1  N         -7.1960    4.6810   13.6010 N.3   100  LEU100     -0.1245
      2  CA        -6.3750    3.4780   13.4560 C.3   100  LEU100      0.1561
      3  C         -5.6660    3.1980   14.7810 C.2   100  LEU100      0.2260
      4  O         -4.9760    4.0710   15.3210 O.2   100  LEU100     -0.2867
      5  CB        -5.3900    3.6220   12.3020 C.3   100  LEU100      0.0270
      6  CG        -4.5690    2.3870   11.9860 C.3   100  LEU100      0.0019
      7  CD1       -4.1210    2.3140   10.5270 C.3   100  LEU100      0.0001
      8  CD2       -3.3220    2.3870   12.8830 C.3   100  LEU100      0.0001
      9  N         -9.7380    0.8520   12.4610 N.3   129  TYR129     -0.1241
     10  CA        -8.9420   -0.2450   11.9100 C.3   129  TYR129      0.1605
     11  C         -7.8870   -0.6020   12.9400 C.2   129  TYR129      0.2264
     12  O         -7.4920    0.2540   13.7180 O.2   129  TYR129     -0.2867
     13  CB        -8.2210    0.1920   10.6340 C.3   129  TYR129      0.0534
     14  CG        -7.5800   -0.9040    9.8210 C.ar  129  TYR129     -0.0201
     15  CD1       -8.3580   -1.6990    8.9740 C.ar  129  TYR129     -0.0009
     16  CD2       -6.2240   -1.1790    9.8630 C.ar  129  TYR129     -0.0009
     17  CE1       -7.8110   -2.7050    8.2080 C.ar  129  TYR129      0.0417
     18  CE2       -5.6560   -2.2120    9.1070 C.ar  129  TYR129      0.0417
     19  CZ        -6.4650   -2.9410    8.2800 C.ar  129  TYR129      0.1957
     20  OH        -5.8770   -3.9470    7.5000 O.3   129  TYR129     -0.2866
     21  N         -4.1600   -2.4990   13.3690 N.3   131  ALA131     -0.1245
     22  CA        -2.9920   -3.0470   12.6800 C.3   131  ALA131      0.1562
     23  C         -1.9490   -3.5350   13.6600 C.2   131  ALA131      0.2260
     24  O         -1.7810   -2.9780   14.7490 O.2   131  ALA131     -0.2867
     25  CB        -2.3700   -1.9750   11.7900 C.3   131  ALA131      0.0290
     26  N          4.0820   -5.0430   11.7900 N.3   135  VAL135     -0.1245
     27  CA         3.7710   -4.8920   10.3590 C.3   135  VAL135      0.1561
     28  C          3.8160   -3.4260    9.9580 C.2   135  VAL135      0.2260
     29  O          4.4150   -3.0850    8.9040 O.2   135  VAL135     -0.2867
     30  CB         2.4160   -5.5120   10.0230 C.3   135  VAL135      0.0252
     31  CG1        2.0450   -5.2530    8.5670 C.3   135  VAL135      0.0019
     32  CG2        2.4450   -7.0110   10.2790 C.3   135  VAL135      0.0019
     33  N          6.2080   -1.6940    7.1060 N.3   139  TYR139     -0.1241
     34  CA         5.7430   -0.7870    6.0580 C.3   139  TYR139      0.1605
     35  C          6.4510    0.5590    6.1010 C.2   139  TYR139      0.2264
     36  O          6.7680    1.1460    5.0410 O.2   139  TYR139     -0.2867
     37  CB         4.2460   -0.5220    6.1860 C.3   139  TYR139      0.0534
     38  CG         3.3090   -1.6760    5.9240 C.ar  139  TYR139     -0.0201
     39  CD1        3.6670   -2.8790    5.3720 C.ar  139  TYR139     -0.0009
     40  CD2        1.9380   -1.4690    6.2350 C.ar  139  TYR139     -0.0009
     41  CE1        2.7540   -3.8860    5.1270 C.ar  139  TYR139      0.0417
     42  CE2        1.0150   -2.4680    5.9780 C.ar  139  TYR139      0.0417
     43  CZ         1.4210   -3.6430    5.4420 C.ar  139  TYR139      0.1957
     44  OH         0.5040   -4.6510    5.1990 O.3   139  TYR139     -0.2866
     45  N         -0.5700    4.2280    6.2480 N.3   342  LEU342     -0.1231
     46  CA        -1.6890    3.3840    5.9500 C.3   342  LEU342      0.1693
     47  C         -3.0110    4.1310    6.0370 C.2   342  LEU342      0.2591
     48  O         -3.8590    4.1600    5.1500 O.2   342  LEU342     -0.2718
     49  CB        -1.6130    2.1980    6.9330 C.3   342  LEU342      0.0284
     50  CG        -2.1720    0.9070    6.3670 C.3   342  LEU342      0.0019
     51  CD1       -1.4040    0.4570    5.1060 C.3   342  LEU342      0.0001
     52  CD2       -2.2610   -0.1870    7.4360 C.3   342  LEU342      0.0001
     53  N         -3.2100    4.8560    7.1570 N.am  343  ALA343     -0.1980
     54  CA        -4.4180    5.6150    7.3960 C.3   343  ALA343      0.1597
     55  C         -4.5870    6.8250    6.4860 C.2   343  ALA343      0.2287
     56  O         -5.7410    7.2520    6.3630 O.2   343  ALA343     -0.2864
     57  CB        -4.4540    6.0320    8.8710 C.3   343  ALA343      0.0319
     58  N         -4.1050    6.6290    3.2330 N.3   345  LEU345     -0.1245
     59  CA        -4.3840    6.1220    1.8920 C.3   345  LEU345      0.1561
     60  C         -5.8960    6.0600    1.7030 C.2   345  LEU345      0.2260
     61  O         -6.5270    5.0050    1.7720 O.2   345  LEU345     -0.2867
     62  CB        -3.7180    4.7710    1.6720 C.3   345  LEU345      0.0270
     63  CG        -2.1870    4.8010    1.7720 C.3   345  LEU345      0.0019
     64  CD1       -1.6570    3.3850    1.6580 C.3   345  LEU345      0.0001
     65  CD2       -1.5810    5.7410    0.7400 C.3   345  LEU345      0.0001
     66  N         -7.9220    3.6310   -0.3250 N.3   348  PHE348     -0.1241
     67  CA        -8.2910    2.4170    0.3800 C.3   348  PHE348      0.1605
     68  C         -9.2500    2.6860    1.5260 C.2   348  PHE348      0.2264
     69  O         -9.3710    1.9020    2.4640 O.2   348  PHE348     -0.2867
     70  CB        -6.9780    1.7930    0.9080 C.3   348  PHE348      0.0534
     71  CG        -6.2460    1.0490   -0.1840 C.ar  348  PHE348     -0.0203
     72  CD1       -5.4850    1.7010   -1.1370 C.ar  348  PHE348     -0.0042
     73  CD2       -6.3510   -0.3390   -0.2200 C.ar  348  PHE348     -0.0042
     74  CE1       -4.8440    0.9810   -2.1210 C.ar  348  PHE348     -0.0003
     75  CE2       -5.7080   -1.0570   -1.2180 C.ar  348  PHE348     -0.0003
     76  CZ        -4.9620   -0.3960   -2.1690 C.ar  348  PHE348     -0.0000
     77  N        -11.2320   -0.0460    3.3610 N.3   351  MET351     -0.1230
     78  CA       -10.6840   -0.9630    4.3530 C.3   351  MET351      0.1702
     79  C        -11.0350   -0.5570    5.7810 C.2   351  MET351      0.2589
     80  O        -10.9730   -1.4130    6.6710 O.2   351  MET351     -0.2718
     81  CB        -9.1600   -0.9980    4.1980 C.3   351  MET351      0.0401
     82  CG        -8.7040   -1.6400    2.8730 C.3   351  MET351      0.0596
     83  SD        -9.1540   -3.3910    2.8630 S.3   351  MET351     -0.1393
     84  CE        -8.3120   -4.0440    4.2920 C.3   351  MET351      0.0692
     85  N        -11.4250    0.7070    5.9980 N.am  352  TRP352     -0.2029
     86  CA       -11.8370    1.0550    7.3740 C.3   352  TRP352      0.1326
     87  C        -13.0330    0.2180    7.7820 C.3   352  TRP352      0.2039
     88  O        -13.8280   -0.0240    6.8700 O.3   352  TRP352     -0.2185
     89  CB       -12.3090    2.5110    7.4490 C.3   352  TRP352      0.0523
     90  CG       -11.2160    3.5120    7.3110 C.ar  352  TRP352      0.0002
     91  CD1      -10.9210    4.2730    6.2140 C.ar  352  TRP352      0.0946
     92  CD2      -10.2240    3.8650    8.3010 C.ar  352  TRP352      0.0152
     93  NE1       -9.8610    5.1160    6.4410 N.ar  352  TRP352     -0.2442
     94  CE2       -9.4290    4.8820    7.7380 C.ar  352  TRP352      0.0810
     95  CE3      -10.0110    3.4710    9.6240 C.ar  352  TRP352      0.0012
     96  CZ2       -8.3750    5.4500    8.4380 C.ar  352  TRP352      0.0191
     97  CZ3       -8.9560    4.0470   10.3050 C.ar  352  TRP352      0.0001
     98  CH2       -8.1690    5.0300    9.7150 C.ar  352  TRP352      0.0015
     99  N         -8.9610  -10.4640   10.1940 N.3   368  ARG368     -0.1245
    100  CA        -8.6970  -10.9180    8.8410 C.3   368  ARG368      0.1563
    101  C         -9.3560  -10.1510    7.7070 C.2   368  ARG368      0.2260
    102  O        -10.3820  -10.6570    7.1690 O.2   368  ARG368     -0.2867
    103  CB        -9.2170  -12.3760    8.8280 C.3   368  ARG368      0.0307
    104  CG        -8.1930  -13.3770    8.3410 C.3   368  ARG368      0.0489
    105  CD        -6.9740  -13.3750    9.2700 C.3   368  ARG368      0.2205
    106  NE        -5.7980  -13.5940    8.4350 N.pl3 368  ARG368     -0.0865
    107  CZ        -4.5740  -13.1550    8.6710 C.cat 368  ARG368      0.5346
    108  NH1       -4.2610  -12.4360    9.7330 N.pl3 368  ARG368      0.1354
    109  NH2       -3.6620  -13.4640    7.7620 N.pl3 368  ARG368      0.1354
@<TRIPOS>BOND
     1    76    74   ar
     2    76    75   ar
     3    74    72   ar
     4    75    73   ar
     5    72    71   ar
     6    66    67    1
     7    73    71   ar
     8    71    70    1
     9    67    70    1
    10    67    68    1
    11    65    63    1
    12    68    69    2
    13    64    63    1
    14    62    63    1
    15    62    59    1
    16    60    61    2
    17    60    59    1
    18    59    58    1
    19    83    82    1
    20    83    84    1
    21    82    81    1
    22    77    78    1
    23    81    78    1
    24    78    79    1
    25    36    35    2
    26    51    50    1
    27    41    39   ar
    28    41    43   ar
    29    48    47    2
    30    44    43    1
    31    39    38   ar
    32    43    42   ar
    33    79    85   am
    34    79    80    2
    35    38    37    1
    36    38    40   ar
    37    46    47    1
    38    46    45    1
    39    46    49    1
    40    42    40   ar
    41    85    86    1
    42    47    53   am
    43    34    35    1
    44    34    37    1
    45    34    33    1
    46    91    93   ar
    47    91    90   ar
    48    56    55    2
    49    50    49    1
    50    50    52    1
    51    93    94   ar
    52    55    54    1
    53    88    87    1
    54    53    54    1
    55   102   101    2
    56    90    89    1
    57    90    92   ar
    58    86    89    1
    59    86    87    1
    60    54    57    1
    61    20    19    1
    62   101   100    1
    63    94    92   ar
    64    94    96   ar
    65   109   107    1
    66    17    19   ar
    67    17    15   ar
    68    19    18   ar
    69    92    95   ar
    70   104   103    1
    71   104   105    1
    72   106   107    2
    73   106   105    1
    74    96    98   ar
    75    31    30    1
    76   107   108    1
    77   103   100    1
    78   100    99    1
    79    29    28    2
    80    15    14   ar
    81    18    16   ar
    82    95    97   ar
    83    98    97   ar
    84    14    16   ar
    85    14    13    1
    86    28    27    1
    87    30    32    1
    88    30    27    1
    89    27    26    1
    90     7     6    1
    91    13    10    1
    92    25    22    1
    93    10     9    1
    94    10    11    1
    95     6     5    1
    96     6     8    1
    97     5     2    1
    98    22    21    1
    99    22    23    1
   100    11    12    2
   101     2     1    1
   102     2     3    1
   103    23    24    2
   104     3     4    2
