@<TRIPOS>MOLECULE
tmp/1j77A00.pdb
 175 169 0 0 0
SMALL
GASTEIGER

@<TRIPOS>ATOM
      1  N         27.9140   12.9010   13.4580 N.3     5  ALA5       -0.1245
      2  CA        26.5340   12.7180   13.8520 C.3     5  ALA5        0.1562
      3  C         25.9150   11.5690   13.0870 C.2     5  ALA5        0.2260
      4  O         25.0860   10.8410   13.6450 O.2     5  ALA5       -0.2867
      5  CB        25.7480   14.0330   13.6320 C.3     5  ALA5        0.0290
      6  N         24.5410    7.9030   14.6550 N.3     9  LYS9       -0.1245
      7  CA        23.2260    7.3300   14.2780 C.3     9  LYS9        0.1561
      8  C         23.3760    5.9310   13.7130 C.2     9  LYS9        0.2260
      9  O         22.6810    4.9990   14.1280 O.2     9  LYS9       -0.2867
     10  CB        22.5280    8.1970   13.2170 C.3     9  LYS9        0.0271
     11  CG        21.1080    7.7300   12.8520 C.3     9  LYS9        0.0035
     12  CD        20.4550    8.7030   11.8840 C.3     9  LYS9        0.0206
     13  CE        19.2080    8.1270   11.2290 C.3     9  LYS9        0.1093
     14  NZ        18.0790    8.0640   12.1870 N.3     9  LYS9       -0.1314
     15  N         18.8950    1.6710   19.5040 N.3    16  HIS16      -0.1241
     16  CA        17.8150    2.6190   19.6550 C.3    16  HIS16       0.1621
     17  C         16.4540    1.9210   19.4560 C.2    16  HIS16       0.2264
     18  O         15.5410    2.0710   20.2260 O.2    16  HIS16      -0.2867
     19  CB        17.8760    3.7790   18.6070 C.3    16  HIS16       0.0745
     20  CG        16.6720    4.6590   18.6590 C.ar   16  HIS16       0.0817
     21  ND1       15.4910    4.3500   18.0090 N.ar   16  HIS16      -0.2268
     22  CD2       16.4210    5.7630   19.3980 C.ar   16  HIS16       0.1154
     23  CE1       14.5780    5.2570   18.3300 C.ar   16  HIS16       0.1986
     24  NE2       15.1410    6.1540   19.1450 N.ar   16  HIS16      -0.2212
     25  N         15.3250   -0.0420   22.2970 N.3    19  VAL19      -0.1231
     26  CA        14.7830    0.7970   23.3580 C.3    19  VAL19       0.1692
     27  C         13.3320    1.1980   23.1020 C.2    19  VAL19       0.2592
     28  O         12.4620    1.0390   23.9630 O.2    19  VAL19      -0.2718
     29  CB        15.7040    2.0580   23.5700 C.3    19  VAL19       0.0266
     30  CG1       14.9770    3.0610   24.4710 C.3    19  VAL19       0.0020
     31  CG2       17.0090    1.6240   24.1550 C.3    19  VAL19       0.0020
     32  N         13.0580    1.6430   21.8730 N.am   20  ASP20      -0.1974
     33  CA        11.7290    2.0100   21.4190 C.3    20  ASP20       0.1709
     34  C         10.7750    0.8060   21.6550 C.2    20  ASP20       0.2293
     35  O          9.7830    0.9270   22.3290 O.2    20  ASP20      -0.2864
     36  CB        11.8520    2.4120   19.9280 C.3    20  ASP20       0.1436
     37  CG        10.5000    2.6930   19.2100 C.2    20  ASP20       0.3671
     38  OD1        9.4040    2.3810   19.7190 O.co2  20  ASP20      -0.2456
     39  OD2       10.5320    3.3450   18.1180 O.co2  20  ASP20      -0.2456
     40  N         10.3160    0.0560   25.5330 N.3    23  VAL23      -0.1231
     41  CA         9.4740    1.0620   26.1680 C.3    23  VAL23       0.1692
     42  C          7.9950    0.7620   25.8040 C.2    23  VAL23       0.2591
     43  O          7.1170    0.6900   26.6620 O.2    23  VAL23      -0.2718
     44  CB         9.8280    2.4800   25.7060 C.3    23  VAL23       0.0266
     45  CG1        8.6880    3.4990   26.0450 C.3    23  VAL23       0.0020
     46  CG2       11.2160    2.9110   26.2810 C.3    23  VAL23       0.0020
     47  N          7.7350    0.5830   24.5330 N.am   24  MET24      -0.1979
     48  CA         6.3430    0.3070   24.1790 C.3    24  MET24       0.1605
     49  C          5.8070   -1.0120   24.7150 C.2    24  MET24       0.2287
     50  O          4.6630   -1.0610   25.1460 O.2    24  MET24      -0.2864
     51  CB         6.1640    0.4270   22.7010 C.3    24  MET24       0.0413
     52  CG         6.4930    1.7970   22.1400 C.3    24  MET24       0.0598
     53  SD         5.5670    3.1510   22.9370 S.3    24  MET24      -0.1393
     54  CE         3.9170    2.7300   22.4800 C.3    24  MET24       0.0692
     55  N         12.4380    8.0220   33.2120 N.3    42  GLN42      -0.1245
     56  CA        12.8850    9.2390   32.5670 C.3    42  GLN42       0.1566
     57  C         13.6670   10.1040   33.5720 C.2    42  GLN42       0.2260
     58  O         14.6770   10.7230   33.2080 O.2    42  GLN42      -0.2867
     59  CB        11.6870   10.0290   31.9870 C.3    42  GLN42       0.0367
     60  CG        10.9240    9.3490   30.8560 C.3    42  GLN42       0.0905
     61  CD        11.6240    9.5090   29.5400 C.2    42  GLN42       0.2608
     62  OE1       11.2330   10.3430   28.6980 O.2    42  GLN42      -0.2717
     63  NE2       12.6670    8.7050   29.3230 N.am   42  GLN42      -0.0878
     64  N         17.2990    8.7060   34.0320 N.3    45  PHE45      -0.1241
     65  CA        18.1210    8.9670   32.8560 C.3    45  PHE45       0.1605
     66  C         18.5200   10.4440   32.7560 C.2    45  PHE45       0.2264
     67  O         19.6850   10.7890   32.4750 O.2    45  PHE45      -0.2867
     68  CB        17.4410    8.5070   31.5640 C.3    45  PHE45       0.0534
     69  CG        18.3040    8.7440   30.3490 C.ar   45  PHE45      -0.0203
     70  CD1       19.3820    7.9160   30.0750 C.ar   45  PHE45      -0.0042
     71  CD2       18.0390    9.7710   29.5090 C.ar   45  PHE45      -0.0042
     72  CE1       20.1920    8.1560   28.9630 C.ar   45  PHE45      -0.0003
     73  CE2       18.8570    9.9820   28.4000 C.ar   45  PHE45      -0.0003
     74  CZ        19.8890    9.1850   28.1650 C.ar   45  PHE45      -0.0000
     75  N         24.5670   13.0620   23.1010 N.3   105  TYR105     -0.1227
     76  CA        23.8910   12.6940   21.8420 C.3   105  TYR105      0.1736
     77  C         22.6090   11.8840   22.1440 C.2   105  TYR105      0.2595
     78  O         21.5120   12.2400   21.6690 O.2   105  TYR105     -0.2718
     79  CB        24.8570   11.8980   20.9520 C.3   105  TYR105      0.0548
     80  CG        24.1420   11.1590   19.8370 C.ar  105  TYR105     -0.0200
     81  CD1       23.6940   11.8340   18.6940 C.ar  105  TYR105     -0.0009
     82  CD2       23.8930    9.8130   19.9640 C.ar  105  TYR105     -0.0009
     83  CE1       23.0000   11.1530   17.7050 C.ar  105  TYR105      0.0417
     84  CE2       23.1700    9.1150   18.9880 C.ar  105  TYR105      0.0417
     85  CZ        22.7300    9.7900   17.8500 C.ar  105  TYR105      0.1957
     86  OH        22.0180    9.0730   16.8610 O.3   105  TYR105     -0.2866
     87  N         22.7130   10.8830   22.9980 N.am  106  CYS106     -0.1970
     88  CA        21.5740    9.9920   23.3200 C.3   106  CYS106      0.1712
     89  C         20.4710   10.8040   23.9630 C.2   106  CYS106      0.2296
     90  O         19.3230   10.7450   23.5470 O.2   106  CYS106     -0.2864
     91  CB        22.0790    8.9320   24.2440 C.3   106  CYS106      0.0983
     92  SG        20.9180    7.7010   24.6780 S.3   106  CYS106     -0.0798
     93  N         19.0600   13.5100   21.3580 N.3   109  GLY109     -0.1210
     94  CA        18.2670   12.8540   20.3500 C.3   109  GLY109      0.1956
     95  C         16.9350   12.3260   20.8500 C.2   109  GLY109      0.2612
     96  O         15.9770   12.2920   20.0850 O.2   109  GLY109     -0.2717
     97  N         16.8210   11.9880   22.1190 N.am  110  SER110     -0.1952
     98  CA        15.5780   11.5080   22.6680 C.3   110  SER110      0.1924
     99  C         14.4690   12.5590   22.6220 C.2   110  SER110      0.2314
    100  O         13.2780   12.2190   22.5750 O.2   110  SER110     -0.2863
    101  CB        15.8070   11.0070   24.0930 C.3   110  SER110      0.2116
    102  OG        15.8260   12.0580   25.0660 O.3   110  SER110     -0.2180
    103  N         14.4020   14.9040   20.2080 N.3   112  LEU112     -0.1231
    104  CA        14.1240   14.8940   18.7730 C.3   112  LEU112      0.1693
    105  C         12.9540   13.9540   18.5330 C.2   112  LEU112      0.2593
    106  O         11.9080   14.3270   17.9860 O.2   112  LEU112     -0.2718
    107  CB        15.3380   14.3660   17.9980 C.3   112  LEU112      0.0284
    108  CG        15.4740   14.7330   16.5300 C.3   112  LEU112      0.0019
    109  CD1       16.0700   13.6000   15.7220 C.3   112  LEU112      0.0001
    110  CD2       14.1820   15.2630   15.9540 C.3   112  LEU112      0.0001
    111  N         13.1050   12.7340   19.0000 N.am  113  GLY113     -0.1942
    112  CA        12.1170   11.7120   18.7350 C.3   113  GLY113      0.2014
    113  C         10.9760   11.5380   19.6980 C.2   113  GLY113      0.2638
    114  O         10.2560   10.5650   19.5740 O.2   113  GLY113     -0.2714
    115  N         10.7590   12.4730   20.6220 N.am  114  ALA114     -0.1977
    116  CA         9.7060   12.3790   21.6230 C.3   114  ALA114      0.1597
    117  C          8.3050   12.7610   21.1560 C.2   114  ALA114      0.2287
    118  O          7.3830   12.7420   21.9330 O.2   114  ALA114     -0.2864
    119  CB        10.0800   13.2560   22.8260 C.3   114  ALA114      0.0319
    120  N          6.1950   11.0680   19.2600 N.3   116  PHE116     -0.1227
    121  CA         5.2550    9.9450   19.3470 C.3   116  PHE116      0.1736
    122  C          4.8280    9.7950   20.7760 C.2   116  PHE116      0.2595
    123  O          3.6540    9.6360   21.0920 O.2   116  PHE116     -0.2718
    124  CB         5.9180    8.6710   18.8250 C.3   116  PHE116      0.0547
    125  CG         5.0830    7.4570   18.9490 C.ar  116  PHE116     -0.0202
    126  CD1        4.2360    7.0820   17.9120 C.ar  116  PHE116     -0.0042
    127  CD2        5.1680    6.6660   20.0820 C.ar  116  PHE116     -0.0042
    128  CE1        3.4560    5.9370   18.0130 C.ar  116  PHE116     -0.0003
    129  CE2        4.3840    5.5370   20.1890 C.ar  116  PHE116     -0.0003
    130  CZ         3.5340    5.1710   19.1470 C.ar  116  PHE116     -0.0000
    131  N          5.7740    9.8430   21.7080 N.am  117  LEU117     -0.1980
    132  CA         5.4360    9.7070   23.1020 C.3   117  LEU117      0.1596
    133  C          4.5350   10.8550   23.5650 C.2   117  LEU117      0.2287
    134  O          3.6510   10.6470   24.3950 O.2   117  LEU117     -0.2864
    135  CB         6.6940    9.6650   23.9620 C.3   117  LEU117      0.0297
    136  CG         7.5920    8.4350   23.8250 C.3   117  LEU117      0.0022
    137  CD1        8.8350    8.7550   24.5430 C.3   117  LEU117      0.0001
    138  CD2        6.9430    7.1630   24.3890 C.3   117  LEU117      0.0001
    139  N         17.3010   20.2690   16.6780 N.3   146  TRP146     -0.1241
    140  CA        18.2110   19.1580   16.4750 C.3   146  TRP146      0.1605
    141  C         19.2830   19.4470   15.4240 C.2   146  TRP146      0.2264
    142  O         20.4610   19.1570   15.6410 O.2   146  TRP146     -0.2867
    143  CB        17.3990   17.8680   16.1160 C.3   146  TRP146      0.0550
    144  CG        18.2130   16.7180   15.7630 C.ar  146  TRP146      0.0003
    145  CD1       18.3410   16.1660   14.5500 C.ar  146  TRP146      0.0946
    146  CD2       19.0050   15.9190   16.6590 C.ar  146  TRP146      0.0152
    147  NE1       19.2110   15.1060   14.5870 N.ar  146  TRP146     -0.2442
    148  CE2       19.6290   14.9240   15.8860 C.ar  146  TRP146      0.0810
    149  CE3       19.3090   15.9960   18.0310 C.ar  146  TRP146      0.0012
    150  CZ2       20.5020   14.0060   16.4250 C.ar  146  TRP146      0.0191
    151  CZ3       20.1480   15.0760   18.5550 C.ar  146  TRP146      0.0001
    152  CH2       20.7490   14.1050   17.7800 C.ar  146  TRP146      0.0015
    153  N         22.3950    4.1290   26.0080 N.3   174  PHE174     -0.1241
    154  CA        21.2210    3.3210   25.6630 C.3   174  PHE174      0.1605
    155  C         21.1270    2.1030   26.5270 C.2   174  PHE174      0.2264
    156  O         20.0310    1.7210   26.9420 O.2   174  PHE174     -0.2867
    157  CB        21.2150    2.8970   24.1870 C.3   174  PHE174      0.0534
    158  CG        20.7790    3.9680   23.1890 C.ar  174  PHE174     -0.0203
    159  CD1       21.6620    4.4080   22.1820 C.ar  174  PHE174     -0.0042
    160  CD2       19.5000    4.5210   23.2070 C.ar  174  PHE174     -0.0042
    161  CE1       21.2640    5.3290   21.2510 C.ar  174  PHE174     -0.0003
    162  CE2       19.1150    5.4270   22.2510 C.ar  174  PHE174     -0.0003
    163  CZ        20.0210    5.8630   21.2800 C.ar  174  PHE174     -0.0000
    164  N         19.7990    3.0830   29.9320 N.3   177  TYR177     -0.1241
    165  CA        18.3710    3.3090   29.8540 C.3   177  TYR177      0.1605
    166  C         17.5780    2.0300   30.0180 C.2   177  TYR177      0.2264
    167  O         16.6240    2.0050   30.7980 O.2   177  TYR177     -0.2867
    168  CB        17.9760    4.0090   28.5740 C.3   177  TYR177      0.0534
    169  CG        16.5570    4.5810   28.5730 C.ar  177  TYR177     -0.0201
    170  CD1       16.2660    5.8490   29.0070 C.ar  177  TYR177     -0.0009
    171  CD2       15.4870    3.8320   28.1510 C.ar  177  TYR177     -0.0009
    172  CE1       14.9780    6.3520   29.0250 C.ar  177  TYR177      0.0417
    173  CE2       14.2050    4.3300   28.1570 C.ar  177  TYR177      0.0417
    174  CZ        13.9500    5.5820   28.5450 C.ar  177  TYR177      0.1957
    175  OH        12.6690    6.0580   28.5850 O.3   177  TYR177     -0.2866
@<TRIPOS>BOND
     1    13    12    1
     2    13    14    1
     3    12    11    1
     4    11    10    1
     5     3     4    2
     6     3     2    1
     7    10     7    1
     8     1     2    1
     9     5     2    1
    10     8     9    2
    11     8     7    1
    12     7     6    1
    13   145   147   ar
    14   145   144   ar
    15   147   148   ar
    16   141   142    2
    17   141   140    1
    18   109   108    1
    19   144   143    1
    20   144   146   ar
    21   148   150   ar
    22   148   146   ar
    23   110   108    1
    24   143   140    1
    25   150   152   ar
    26   140   139    1
    27   108   107    1
    28   146   149   ar
    29    86    85    1
    30    83    85   ar
    31    83    81   ar
    32   152   151   ar
    33    85    84   ar
    34   126   128   ar
    35   126   125   ar
    36   106   105    2
    37   107   104    1
    38    21    23   ar
    39    21    20   ar
    40   128   130   ar
    41   149   151   ar
    42    39    37   ar
    43    23    24   ar
    44   105   104    1
    45   105   111   am
    46    19    20    1
    47    19    16    1
    48    20    22   ar
    49    81    80   ar
    50   112   111    1
    51   112   113    1
    52   104   103    1
    53   124   125    1
    54   124   121    1
    55   125   127   ar
    56    84    82   ar
    57    24    22   ar
    58   130   129   ar
    59    37    38   ar
    60    37    36    1
    61   120   121    1
    62   121   122    1
    63    17    16    1
    64    17    18    2
    65    15    16    1
    66   114   113    2
    67   113   115   am
    68    80    82   ar
    69    80    79    1
    70    36    33    1
    71   127   129   ar
    72    96    95    2
    73    94    95    1
    74    94    93    1
    75   115   116    1
    76   122   123    2
    77   122   131   am
    78    95    97   am
    79    79    76    1
    80   117   116    1
    81   117   118    2
    82   161   163   ar
    83   161   159   ar
    84   163   162   ar
    85    33    34    1
    86    33    32    1
    87   116   119    1
    88    34    35    2
    89    78    77    2
    90   131   132    1
    91    76    77    1
    92    76    75    1
    93    32    27   am
    94    97    98    1
    95    52    51    1
    96    52    53    1
    97    77    87   am
    98   159   158   ar
    99   162   160   ar
   100    25    26    1
   101    54    53    1
   102   100    99    2
   103    99    98    1
   104    98   101    1
   105    51    48    1
   106    87    88    1
   107   132   133    1
   108   132   135    1
   109    27    26    1
   110    27    28    2
   111   158   160   ar
   112   158   157    1
   113    88    89    1
   114    88    91    1
   115    26    29    1
   116    90    89    2
   117   133   134    2
   118    29    31    1
   119    29    30    1
   120   136   135    1
   121   136   138    1
   122   136   137    1
   123   101   102    1
   124    48    47    1
   125    48    49    1
   126   157   154    1
   127    91    92    1
   128    47    42   am
   129    49    50    2
   130    40    41    1
   131   154   153    1
   132   154   155    1
   133    44    45    1
   134    44    41    1
   135    44    46    1
   136    42    41    1
   137    42    43    2
   138   155   156    2
   139   171   173   ar
   140   171   169   ar
   141   173   174   ar
   142    74    73   ar
   143    74    72   ar
   144    73    71   ar
   145   174   175    1
   146   174   172   ar
   147   169   168    1
   148   169   170   ar
   149   168   165    1
   150    62    61    2
   151    72    70   ar
   152   170   172   ar
   153    63    61   am
   154    71    69   ar
   155    61    60    1
   156   165   164    1
   157   165   166    1
   158   166   167    2
   159    70    69   ar
   160    69    68    1
   161    60    59    1
   162    68    65    1
   163    59    56    1
   164    67    66    2
   165    56    55    1
   166    56    57    1
   167    66    65    1
   168    65    64    1
   169    58    57    2
