@<TRIPOS>MOLECULE
tmp/1j78B01.pdb
 86 84 0 0 0
SMALL
GASTEIGER

@<TRIPOS>ATOM
      1  N        -12.7580  -52.8260   32.2960 N.3   144  GLN144     -0.1245
      2  CA       -12.3020  -54.1810   32.0030 C.3   144  GLN144      0.1566
      3  C        -10.8260  -54.3280   32.3670 C.2   144  GLN144      0.2260
      4  O        -10.2760  -55.4230   32.3120 O.2   144  GLN144     -0.2867
      5  CB       -12.5360  -54.5280   30.5280 C.3   144  GLN144      0.0367
      6  CG       -14.0160  -54.6480   30.1450 C.3   144  GLN144      0.0905
      7  CD       -14.7160  -55.8020   30.8680 C.2   144  GLN144      0.2608
      8  OE1      -14.1180  -56.8480   31.1080 O.2   144  GLN144     -0.2717
      9  NE2      -15.9840  -55.6170   31.2010 N.am  144  GLN144     -0.0878
     10  N         -9.3840  -56.4410   26.5900 N.3   195  CYS195     -0.1235
     11  CA       -10.1960  -57.2740   27.4640 C.3   195  CYS195      0.1677
     12  C        -11.6810  -57.0190   27.2340 C.2   195  CYS195      0.2270
     13  O        -12.4980  -57.9040   27.4610 O.2   195  CYS195     -0.2867
     14  CB        -9.8160  -57.0570   28.9290 C.3   195  CYS195      0.0956
     15  SG        -8.2030  -57.7980   29.3720 S.3   195  CYS195     -0.0801
     16  N        -12.3600  -59.1660   24.3500 N.3   198  TYR198     -0.1227
     17  CA       -12.3410  -60.5360   24.8320 C.3   198  TYR198      0.1736
     18  C        -13.6270  -60.8760   25.5830 C.2   198  TYR198      0.2595
     19  O        -14.2010  -61.9490   25.3970 O.2   198  TYR198     -0.2718
     20  CB       -11.1480  -60.7680   25.7630 C.3   198  TYR198      0.0548
     21  CG       -10.9830  -62.2200   26.1350 C.ar  198  TYR198     -0.0200
     22  CD1      -10.3870  -63.1190   25.2530 C.ar  198  TYR198     -0.0009
     23  CD2      -11.4770  -62.7120   27.3420 C.ar  198  TYR198     -0.0009
     24  CE1      -10.2900  -64.4710   25.5590 C.ar  198  TYR198      0.0417
     25  CE2      -11.3870  -64.0590   27.6570 C.ar  198  TYR198      0.0417
     26  CZ       -10.7940  -64.9330   26.7600 C.ar  198  TYR198      0.1957
     27  OH       -10.7300  -66.2680   27.0510 O.3   198  TYR198     -0.2866
     28  N        -14.0760  -59.9620   26.4350 N.am  199  ALA199     -0.1966
     29  CA       -15.2880  -60.1890   27.2090 C.3   199  ALA199      0.1728
     30  C        -16.5110  -60.3160   26.3120 C.2   199  ALA199      0.2616
     31  O        -17.4450  -61.0510   26.6290 O.2   199  ALA199     -0.2715
     32  CB       -15.4930  -59.0540   28.2060 C.3   199  ALA199      0.0334
     33  N        -16.5040  -59.5990   25.1910 N.am  200  ALA200     -0.1963
     34  CA       -17.6370  -59.6260   24.2720 C.3   200  ALA200      0.1728
     35  C        -17.6840  -60.8970   23.4400 C.2   200  ALA200      0.2616
     36  O        -18.7660  -61.3990   23.1110 O.2   200  ALA200     -0.2715
     37  CB       -17.5820  -58.4160   23.3450 C.3   200  ALA200      0.0334
     38  N        -16.5080  -61.4130   23.1040 N.am  201  TYR201     -0.1960
     39  CA       -16.3980  -62.6030   22.2700 C.3   201  TYR201      0.1771
     40  C        -16.3260  -63.9430   23.0030 C.2   201  TYR201      0.2620
     41  O        -17.0510  -64.8760   22.6740 O.2   201  TYR201     -0.2715
     42  CB       -15.1700  -62.4610   21.3460 C.3   201  TYR201      0.0574
     43  CG       -15.4540  -61.7010   20.0580 C.ar  201  TYR201     -0.0198
     44  CD1      -14.4320  -61.0500   19.3630 C.ar  201  TYR201     -0.0009
     45  CD2      -16.7400  -61.6560   19.5250 C.ar  201  TYR201     -0.0009
     46  CE1      -14.6870  -60.3820   18.1740 C.ar  201  TYR201      0.0417
     47  CE2      -17.0070  -60.9890   18.3320 C.ar  201  TYR201      0.0417
     48  CZ       -15.9730  -60.3580   17.6620 C.ar  201  TYR201      0.1957
     49  OH       -16.2210  -59.7350   16.4680 O.3   201  TYR201     -0.2866
     50  N        -15.4670  -64.0260   24.0080 N.am  202  GLY202     -0.1954
     51  CA       -15.2790  -65.2840   24.7010 C.3   202  GLY202      0.1869
     52  C        -14.0650  -65.8900   24.0160 C.2   202  GLY202      0.2309
     53  O        -13.7800  -65.5640   22.8480 O.2   202  GLY202     -0.2863
     54  N        -13.2830  -68.6870   22.4510 N.3   204  LYS204     -0.1231
     55  CA       -13.4040  -69.2630   21.1210 C.3   204  LYS204      0.1693
     56  C        -13.5440  -68.2290   20.0010 C.2   204  LYS204      0.2591
     57  O        -12.8530  -68.3060   18.9840 O.2   204  LYS204     -0.2718
     58  CB       -14.5810  -70.2410   21.0720 C.3   204  LYS204      0.0285
     59  CG       -14.7260  -70.9650   19.7350 C.3   204  LYS204      0.0035
     60  CD       -15.8870  -71.9570   19.7690 C.3   204  LYS204      0.0206
     61  CE       -15.9560  -72.7940   18.4960 C.3   204  LYS204      0.1093
     62  NZ       -16.1950  -71.9660   17.2790 N.3   204  LYS204     -0.1314
     63  N        -14.4470  -67.2720   20.1590 N.am  205  LYS205     -0.1980
     64  CA       -14.6040  -66.2760   19.1140 C.3   205  LYS205      0.1596
     65  C        -13.4240  -65.3050   19.1120 C.2   205  LYS205      0.2287
     66  O        -13.0660  -64.7670   18.0750 O.2   205  LYS205     -0.2864
     67  CB       -15.9280  -65.5280   19.2800 C.3   205  LYS205      0.0298
     68  CG       -17.1530  -66.4030   19.0180 C.3   205  LYS205      0.0038
     69  CD       -18.4100  -65.5720   18.7800 C.3   205  LYS205      0.0206
     70  CE       -18.2590  -64.7230   17.5230 C.3   205  LYS205      0.1093
     71  NZ       -19.5410  -64.1400   17.0470 N.3   205  LYS205     -0.1314
     72  N         -7.0770  -61.0790   31.3850 N.3   241  CYS241     -0.1221
     73  CA        -8.3900  -60.4480   31.5090 C.3   241  CYS241      0.1808
     74  C         -9.2310  -61.0620   32.6210 C.2   241  CYS241      0.2601
     75  O        -10.3180  -60.5710   32.9240 O.2   241  CYS241     -0.2717
     76  CB        -9.1750  -60.5500   30.2020 C.3   241  CYS241      0.0970
     77  SG        -8.3970  -59.7320   28.7850 S.3   241  CYS241     -0.0800
     78  N         -8.7320  -62.1320   33.2300 N.am  242  GLU242     -0.1979
     79  CA        -9.4760  -62.8080   34.2890 C.3   242  GLU242      0.1602
     80  C         -8.6220  -62.9570   35.5390 C.2   242  GLU242      0.2287
     81  O         -8.9520  -63.7020   36.4600 O.2   242  GLU242     -0.2864
     82  CB        -9.9480  -64.1640   33.7670 C.3   242  GLU242      0.0415
     83  CG       -10.5300  -64.0370   32.3590 C.3   242  GLU242      0.1163
     84  CD       -10.9950  -65.3460   31.7680 C.2   242  GLU242      0.3649
     85  OE1      -10.3670  -66.3850   32.0550 O.co2 242  GLU242     -0.2457
     86  OE2      -11.9810  -65.3270   30.9980 O.co2 242  GLU242     -0.2457
@<TRIPOS>BOND
     1    49    48    1
     2    71    70    1
     3    62    61    1
     4    70    69    1
     5    48    46   ar
     6    48    47   ar
     7    66    65    2
     8    46    44   ar
     9    47    45   ar
    10    61    60    1
    11    69    68    1
    12    57    56    2
    13    68    67    1
    14    65    64    1
    15    64    67    1
    16    64    63    1
    17    44    43   ar
    18    45    43   ar
    19    59    60    1
    20    59    58    1
    21    56    63   am
    22    56    55    1
    23    43    42    1
    24    58    55    1
    25    55    54    1
    26    42    39    1
    27    39    40    1
    28    39    38    1
    29    41    40    2
    30    53    52    2
    31    40    50   am
    32    38    35   am
    33    36    35    2
    34    37    34    1
    35    35    34    1
    36    50    51    1
    37    52    51    1
    38    34    33    1
    39    16    17    1
    40    17    18    1
    41    17    20    1
    42    33    30   am
    43    22    24   ar
    44    22    21   ar
    45    19    18    2
    46    24    26   ar
    47    18    28   am
    48    20    21    1
    49    21    23   ar
    50    30    31    2
    51    30    29    1
    52    28    29    1
    53    10    11    1
    54    26    27    1
    55    26    25   ar
    56    29    32    1
    57    12    13    2
    58    12    11    1
    59    23    25   ar
    60    11    14    1
    61    77    15    1
    62    77    76    1
    63    14    15    1
    64     6     5    1
    65     6     7    1
    66    76    73    1
    67     5     2    1
    68     7     8    2
    69     7     9   am
    70    86    84   ar
    71    72    73    1
    72    73    74    1
    73    84    85   ar
    74    84    83    1
    75     2     1    1
    76     2     3    1
    77     4     3    2
    78    83    82    1
    79    74    75    2
    80    74    78   am
    81    78    79    1
    82    82    79    1
    83    79    80    1
    84    80    81    2
