@<TRIPOS>MOLECULE
tmp/1j78B02.pdb
 212 200 0 0 0
SMALL
GASTEIGER

@<TRIPOS>ATOM
      1  N        -16.8250  -63.6130   53.7600 N.3     6  GLU6       -0.1245
      2  CA       -16.9170  -62.2110   53.3710 C.3     6  GLU6        0.1567
      3  C        -16.9340  -61.2770   54.5810 C.2     6  GLU6        0.2260
      4  O        -16.1450  -60.3340   54.6560 O.2     6  GLU6       -0.2867
      5  CB       -18.1840  -61.9810   52.5390 C.3     6  GLU6        0.0388
      6  CG       -18.2040  -62.6710   51.1760 C.3     6  GLU6        0.1160
      7  CD       -17.2280  -62.0560   50.1850 C.2     6  GLU6        0.3649
      8  OE1      -17.2680  -60.8220   49.9900 O.co2   6  GLU6       -0.2457
      9  OE2      -16.4250  -62.8080   49.5950 O.co2   6  GLU6       -0.2457
     10  N        -13.6710  -60.9680   55.9560 N.3     9  LYS9       -0.1231
     11  CA       -12.8420  -60.5510   54.8300 C.3     9  LYS9        0.1693
     12  C        -12.9300  -59.0590   54.5160 C.2     9  LYS9        0.2591
     13  O        -11.9240  -58.4340   54.1720 O.2     9  LYS9       -0.2718
     14  CB       -13.2070  -61.3630   53.5950 C.3     9  LYS9        0.0285
     15  CG       -12.3500  -61.0640   52.3900 C.3     9  LYS9        0.0035
     16  CD       -12.7740  -61.9050   51.2080 C.3     9  LYS9        0.0206
     17  CE       -12.1070  -61.3960   49.9380 C.3     9  LYS9        0.1093
     18  NZ       -12.4520  -62.2240   48.7450 N.3     9  LYS9       -0.1314
     19  N        -14.1260  -58.4870   54.6250 N.am   10  VAL10      -0.1980
     20  CA       -14.3010  -57.0650   54.3400 C.3    10  VAL10       0.1595
     21  C        -13.8320  -56.1930   55.5000 C.2    10  VAL10       0.2287
     22  O        -13.3170  -55.0940   55.2850 O.2    10  VAL10      -0.2864
     23  CB       -15.7790  -56.7180   54.0160 C.3    10  VAL10       0.0276
     24  CG1      -16.2470  -57.5210   52.8150 C.3    10  VAL10       0.0022
     25  CG2      -16.6620  -56.9930   55.2170 C.3    10  VAL10       0.0022
     26  N        -10.0320  -55.4720   55.3840 N.3    13  GLU13      -0.1245
     27  CA        -9.6430  -54.3830   54.4960 C.3    13  GLU13       0.1567
     28  C         -9.9860  -53.0250   55.0860 C.2    13  GLU13       0.2260
     29  O         -9.1650  -52.1090   55.0640 O.2    13  GLU13      -0.2867
     30  CB       -10.3260  -54.5270   53.1350 C.3    13  GLU13       0.0388
     31  CG        -9.8350  -55.7020   52.3120 C.3    13  GLU13       0.1160
     32  CD       -10.3800  -55.6850   50.8990 C.2    13  GLU13       0.3649
     33  OE1      -11.6170  -55.7470   50.7350 O.co2  13  GLU13      -0.2457
     34  OE2       -9.5700  -55.6060   49.9500 O.co2  13  GLU13      -0.2457
     35  N        -10.6270  -47.2220   51.9520 N.3    22  PHE22      -0.1241
     36  CA       -11.5640  -48.3200   51.7520 C.3    22  PHE22       0.1605
     37  C        -12.7040  -47.7790   50.8960 C.2    22  PHE22       0.2264
     38  O        -13.2760  -48.4940   50.0710 O.2    22  PHE22      -0.2867
     39  CB       -12.1470  -48.8180   53.0760 C.3    22  PHE22       0.0534
     40  CG       -13.1970  -49.8880   52.9090 C.ar   22  PHE22      -0.0203
     41  CD1      -12.8330  -51.2160   52.7280 C.ar   22  PHE22      -0.0042
     42  CD2      -14.5480  -49.5590   52.8900 C.ar   22  PHE22      -0.0042
     43  CE1      -13.8010  -52.2030   52.5280 C.ar   22  PHE22      -0.0003
     44  CE2      -15.5260  -50.5400   52.6900 C.ar   22  PHE22      -0.0003
     45  CZ       -15.1490  -51.8630   52.5090 C.ar   22  PHE22      -0.0000
     46  N        -11.3670  -47.3160   47.2900 N.3    25  LEU25      -0.1231
     47  CA       -11.3050  -48.6210   46.6460 C.3    25  LEU25       0.1693
     48  C        -12.7040  -49.1100   46.2950 C.2    25  LEU25       0.2592
     49  O        -12.9080  -49.7330   45.2530 O.2    25  LEU25      -0.2718
     50  CB       -10.6200  -49.6280   47.5650 C.3    25  LEU25       0.0284
     51  CG       -10.8340  -51.1180   47.2560 C.3    25  LEU25       0.0019
     52  CD1      -10.2580  -51.4590   45.9060 C.3    25  LEU25       0.0001
     53  CD2      -10.1820  -51.9700   48.3420 C.3    25  LEU25       0.0001
     54  N        -13.6660  -48.8350   47.1690 N.am   26  SER26      -0.1952
     55  CA       -15.0430  -49.2550   46.9220 C.3    26  SER26       0.1924
     56  C        -15.5970  -48.5170   45.7110 C.2    26  SER26       0.2314
     57  O        -16.3030  -49.1010   44.8900 O.2    26  SER26      -0.2863
     58  CB       -15.9330  -48.9630   48.1410 C.3    26  SER26       0.2116
     59  OG       -15.5400  -49.7360   49.2590 O.3    26  SER26      -0.2180
     60  N        -14.0800  -50.1050   42.6790 N.3    29  LEU29      -0.1231
     61  CA       -14.6500  -51.4430   42.5170 C.3    29  LEU29       0.1693
     62  C        -16.0730  -51.4310   41.9610 C.2    29  LEU29       0.2592
     63  O        -16.3900  -52.1580   41.0230 O.2    29  LEU29      -0.2718
     64  CB       -14.6300  -52.1870   43.8590 C.3    29  LEU29       0.0284
     65  CG       -15.0690  -53.6590   43.8990 C.3    29  LEU29       0.0019
     66  CD1      -14.7190  -54.2340   45.2640 C.3    29  LEU29       0.0001
     67  CD2      -16.5580  -53.8020   43.6330 C.3    29  LEU29       0.0001
     68  N        -16.9410  -50.6100   42.5380 N.am   30  TYR30      -0.1976
     69  CA       -18.3150  -50.5740   42.0620 C.3    30  TYR30       0.1639
     70  C        -18.5010  -49.8350   40.7470 C.2    30  TYR30       0.2290
     71  O        -19.4230  -50.1440   39.9920 O.2    30  TYR30      -0.2864
     72  CB       -19.2390  -50.0190   43.1470 C.3    30  TYR30       0.0560
     73  CG       -19.4280  -51.0080   44.2750 C.ar   30  TYR30      -0.0198
     74  CD1      -18.6820  -50.9130   45.4470 C.ar   30  TYR30      -0.0009
     75  CD2      -20.2990  -52.0900   44.1360 C.ar   30  TYR30      -0.0009
     76  CE1      -18.7950  -51.8740   46.4550 C.ar   30  TYR30       0.0417
     77  CE2      -20.4200  -53.0550   45.1370 C.ar   30  TYR30       0.0417
     78  CZ       -19.6650  -52.9400   46.2910 C.ar   30  TYR30       0.1957
     79  OH       -19.7810  -53.8850   47.2850 O.3    30  TYR30      -0.2866
     80  N        -17.8710  -52.4480   38.1990 N.3    33  LYS33      -0.1231
     81  CA       -18.9880  -53.3750   38.1850 C.3    33  LYS33       0.1693
     82  C        -20.2560  -52.7980   37.5620 C.2    33  LYS33       0.2592
     83  O        -21.0530  -53.5390   36.9930 O.2    33  LYS33      -0.2718
     84  CB       -19.2680  -53.8590   39.6170 C.3    33  LYS33       0.0285
     85  CG       -20.0560  -55.1560   39.7020 C.3    33  LYS33       0.0035
     86  CD       -20.2890  -55.5750   41.1520 C.3    33  LYS33       0.0206
     87  CE       -18.9780  -55.8110   41.8970 C.3    33  LYS33       0.1093
     88  NZ       -18.1900  -56.9460   41.3280 N.3    33  LYS33      -0.1314
     89  N        -20.4510  -51.4840   37.6670 N.am   34  PHE34      -0.1976
     90  CA       -21.6400  -50.8590   37.0870 C.3    34  PHE34       0.1639
     91  C        -21.2740  -49.8210   36.0420 C.2    34  PHE34       0.2290
     92  O        -21.3320  -48.6190   36.2920 O.2    34  PHE34      -0.2864
     93  CB       -22.5060  -50.2320   38.1800 C.3    34  PHE34       0.0560
     94  CG       -23.0770  -51.2380   39.1290 C.ar   34  PHE34      -0.0200
     95  CD1      -22.4600  -51.4920   40.3500 C.ar   34  PHE34      -0.0042
     96  CD2      -24.1980  -51.9890   38.7700 C.ar   34  PHE34      -0.0042
     97  CE1      -22.9490  -52.4880   41.2080 C.ar   34  PHE34      -0.0003
     98  CE2      -24.6940  -52.9840   39.6180 C.ar   34  PHE34      -0.0003
     99  CZ       -24.0660  -53.2340   40.8410 C.ar   34  PHE34      -0.0000
    100  N        -24.3500  -46.0880   46.5050 N.3    45  LEU45      -0.1245
    101  CA       -24.1250  -47.4910   46.8300 C.3    45  LEU45       0.1561
    102  C        -22.8630  -47.6340   47.6780 C.2    45  LEU45       0.2260
    103  O        -22.8280  -48.4070   48.6320 O.2    45  LEU45      -0.2867
    104  CB       -23.9640  -48.3220   45.5580 C.3    45  LEU45       0.0270
    105  CG       -23.5450  -49.7820   45.7650 C.3    45  LEU45       0.0019
    106  CD1      -24.6110  -50.5110   46.5980 C.3    45  LEU45       0.0001
    107  CD2      -23.3600  -50.4630   44.4050 C.3    45  LEU45       0.0001
    108  N        -22.4620  -49.2680   51.5120 N.3    49  VAL49      -0.1245
    109  CA       -21.4920  -50.3330   51.7100 C.3    49  VAL49       0.1561
    110  C        -20.4760  -49.9650   52.7940 C.2    49  VAL49       0.2260
    111  O        -20.1150  -50.7970   53.6300 O.2    49  VAL49      -0.2867
    112  CB       -20.7430  -50.6420   50.4010 C.3    49  VAL49       0.0252
    113  CG1      -19.5780  -51.5950   50.6740 C.3    49  VAL49       0.0019
    114  CG2      -21.7150  -51.2480   49.3830 C.3    49  VAL49       0.0019
    115  N        -20.1820  -51.5070   56.4470 N.3    53  THR53      -0.1218
    116  CA       -18.9560  -52.1780   56.8520 C.3    53  THR53       0.1862
    117  C        -18.4370  -51.6130   58.1690 C.2    53  THR53       0.2287
    118  O        -18.0890  -52.3640   59.0740 O.2    53  THR53      -0.2866
    119  CB       -17.8690  -52.0370   55.7630 C.3    53  THR53       0.1770
    120  OG1      -18.2190  -52.8510   54.6340 O.3    53  THR53      -0.2211
    121  CG2      -16.5100  -52.4630   56.2940 C.3    53  THR53       0.0375
    122  N        -24.1370  -57.5590   58.8760 N.3    66  TYR66      -0.1241
    123  CA       -23.5680  -58.0180   57.6080 C.3    66  TYR66       0.1605
    124  C        -24.1710  -59.3590   57.2310 C.2    66  TYR66       0.2264
    125  O        -23.5550  -60.4100   57.4010 O.2    66  TYR66      -0.2867
    126  CB       -22.0420  -58.1370   57.6940 C.3    66  TYR66       0.0534
    127  CG       -21.3850  -58.3290   56.3420 C.ar   66  TYR66      -0.0201
    128  CD1      -21.4000  -59.5680   55.7030 C.ar   66  TYR66      -0.0009
    129  CD2      -20.8020  -57.2530   55.6740 C.ar   66  TYR66      -0.0009
    130  CE1      -20.8560  -59.7320   54.4300 C.ar   66  TYR66       0.0417
    131  CE2      -20.2560  -57.4040   54.4020 C.ar   66  TYR66       0.0417
    132  CZ       -20.2870  -58.6450   53.7840 C.ar   66  TYR66       0.1957
    133  OH       -19.7640  -58.7940   52.5180 O.3    66  TYR66      -0.2866
    134  N        -26.7910  -56.4930   54.6870 N.3    70  THR70      -0.1218
    135  CA       -26.5440  -56.7190   53.2690 C.3    70  THR70       0.1862
    136  C        -27.8390  -57.0680   52.5510 C.2    70  THR70       0.2287
    137  O        -28.0570  -56.6630   51.4080 O.2    70  THR70      -0.2866
    138  CB       -25.5470  -57.8670   53.0460 C.3    70  THR70       0.1770
    139  OG1      -24.3170  -57.5710   53.7150 O.3    70  THR70      -0.2211
    140  CG2      -25.2700  -58.0420   51.5630 C.3    70  THR70       0.0375
    141  N        -29.7570  -54.2720   51.5160 N.3    73  LEU73      -0.1231
    142  CA       -29.1130  -53.5870   50.4060 C.3    73  LEU73       0.1693
    143  C        -29.7060  -54.1680   49.1290 C.2    73  LEU73       0.2592
    144  O        -30.1800  -53.4310   48.2650 O.2    73  LEU73      -0.2718
    145  CB       -27.6060  -53.8250   50.4480 C.3    73  LEU73       0.0284
    146  CG       -26.7090  -52.7380   49.8550 C.3    73  LEU73       0.0019
    147  CD1      -26.8740  -51.4430   50.6410 C.3    73  LEU73       0.0001
    148  CD2      -25.2630  -53.2000   49.9110 C.3    73  LEU73       0.0001
    149  N        -29.6800  -55.4950   49.0250 N.am   74  SER74      -0.1952
    150  CA       -30.2410  -56.1880   47.8720 C.3    74  SER74       0.1924
    151  C        -31.6880  -55.7530   47.7150 C.2    74  SER74       0.2314
    152  O        -32.1300  -55.4080   46.6200 O.2    74  SER74      -0.2863
    153  CB       -30.1870  -57.7020   48.0750 C.3    74  SER74       0.2116
    154  OG       -28.8480  -58.1530   48.1500 O.3    74  SER74      -0.2180
    155  N        -32.1320  -52.4710   46.1660 N.3    77  SER77      -0.1217
    156  CA       -31.8490  -52.4200   44.7360 C.3    77  SER77       0.1889
    157  C        -33.0500  -52.8200   43.8830 C.2    77  SER77       0.2288
    158  O        -33.0410  -52.6330   42.6670 O.2    77  SER77      -0.2866
    159  CB       -30.6600  -53.3260   44.3960 C.3    77  SER77       0.2089
    160  OG       -29.4660  -52.8590   45.0000 O.3    77  SER77      -0.2183
    161  N        -27.1000  -48.4690   41.6110 N.3    85  PRO85      -0.2102
    162  CA       -26.9330  -48.8900   40.2170 C.3    85  PRO85       0.1504
    163  C        -27.4890  -50.3020   40.1350 C.2    85  PRO85       0.2576
    164  O        -27.6430  -50.9700   41.1580 O.2    85  PRO85      -0.2718
    165  CB       -25.4170  -48.8940   40.0190 C.3    85  PRO85       0.0282
    166  CG       -24.8810  -48.0940   41.1670 C.3    85  PRO85       0.0208
    167  CD       -25.7990  -48.4230   42.2950 C.3    85  PRO85       0.0893
    168  N        -27.7650  -50.7720   38.9270 N.am   86  VAL86      -0.1966
    169  CA       -28.3080  -52.1090   38.7730 C.3    86  VAL86       0.1727
    170  C        -27.9440  -52.7310   37.4240 C.2    86  VAL86       0.2616
    171  O        -27.8680  -52.0430   36.4080 O.2    86  VAL86      -0.2715
    172  CB       -29.8490  -52.0700   38.9710 C.3    86  VAL86       0.0290
    173  CG1      -30.5740  -52.2890   37.6520 C.3    86  VAL86       0.0023
    174  CG2      -30.2560  -53.0870   40.0160 C.3    86  VAL86       0.0023
    175  N        -27.6990  -54.0360   37.4300 N.am   87  HIS87      -0.1973
    176  CA       -27.3540  -54.7610   36.2160 C.3    87  HIS87       0.1656
    177  C        -28.6190  -55.0200   35.4040 C.2    87  HIS87       0.2291
    178  O        -29.7320  -54.9070   35.9140 O.2    87  HIS87      -0.2864
    179  CB       -26.7110  -56.1060   36.5610 C.3    87  HIS87       0.0771
    180  CG       -25.4060  -55.9930   37.2870 C.ar   87  HIS87       0.0820
    181  ND1      -24.2800  -55.4390   36.7150 N.ar   87  HIS87      -0.2267
    182  CD2      -25.0400  -56.3920   38.5290 C.ar   87  HIS87       0.1154
    183  CE1      -23.2770  -55.5040   37.5730 C.ar   87  HIS87       0.1986
    184  NE2      -23.7120  -56.0770   38.6820 N.ar   87  HIS87      -0.2212
    185  N        -31.8720  -57.2610   36.7640 N.3    90  THR90      -0.1218
    186  CA       -31.9660  -57.3020   38.2210 C.3    90  THR90       0.1862
    187  C        -33.4370  -57.3080   38.6170 C.2    90  THR90       0.2287
    188  O        -33.9040  -58.2200   39.3020 O.2    90  THR90      -0.2866
    189  CB       -31.2970  -56.0830   38.8780 C.3    90  THR90       0.1770
    190  OG1      -31.8740  -54.8850   38.3490 O.3    90  THR90      -0.2211
    191  CG2      -29.8010  -56.0850   38.6280 C.3    90  THR90       0.0375
    192  N        -28.3150  -65.7150   45.4740 N.3    96  LEU96      -0.1245
    193  CA       -29.3260  -64.7450   44.9660 C.3    96  LEU96       0.1561
    194  C        -29.1490  -64.5450   43.4660 C.2    96  LEU96       0.2260
    195  O        -28.0970  -64.8630   42.9100 O.2    96  LEU96      -0.2867
    196  CB       -29.1820  -63.4090   45.6930 C.3    96  LEU96       0.0270
    197  CG       -29.6100  -63.3840   47.1600 C.3    96  LEU96       0.0019
    198  CD1      -29.2610  -62.0340   47.7420 C.3    96  LEU96       0.0001
    199  CD2      -31.0890  -63.6250   47.3220 C.3    96  LEU96       0.0001
    200  N        -29.4470  -61.5030   41.8940 N.3    98  MET98      -0.1230
    201  CA       -28.7110  -60.2530   41.7180 C.3    98  MET98       0.1702
    202  C        -27.2120  -60.4410   41.9370 C.2    98  MET98       0.2592
    203  O        -26.4480  -59.4730   41.9520 O.2    98  MET98      -0.2718
    204  CB       -29.2470  -59.1890   42.6780 C.3    98  MET98       0.0401
    205  CG       -30.7020  -58.8230   42.4380 C.3    98  MET98       0.0596
    206  SD       -31.3160  -57.5950   43.6030 S.3    98  MET98      -0.1393
    207  CE       -32.0130  -58.6540   44.8760 C.3    98  MET98       0.0692
    208  N        -26.8040  -61.6940   42.1120 N.am   99  ALA99      -0.1980
    209  CA       -25.4030  -62.0370   42.3110 C.3    99  ALA99       0.1597
    210  C        -24.9670  -62.8680   41.1120 C.2    99  ALA99       0.2287
    211  O        -23.7770  -62.9980   40.8250 O.2    99  ALA99      -0.2864
    212  CB       -25.2350  -62.8360   43.5980 C.3    99  ALA99       0.0319
@<TRIPOS>BOND
     1   177   178    2
     2   177   176    1
     3    91    92    2
     4    91    90    1
     5   176   179    1
     6   176   175    1
     7   171   170    2
     8   179   180    1
     9   181   180   ar
    10   181   183   ar
    11   185   186    1
    12    83    82    2
    13    90    89    1
    14    90    93    1
    15   180   182   ar
    16   170   175   am
    17   170   169    1
    18    82    89   am
    19    82    81    1
    20   183   184   ar
    21   173   172    1
    22    93    94    1
    23    81    80    1
    24    81    84    1
    25   186   187    1
    26   186   189    1
    27   190   189    1
    28   182   184   ar
    29   187   188    2
    30   191   189    1
    31    96    94   ar
    32    96    98   ar
    33   169   168    1
    34   169   172    1
    35   168   163   am
    36   172   174    1
    37    94    95   ar
    38    84    85    1
    39    98    99   ar
    40    85    86    1
    41    71    70    2
    42   165   162    1
    43   165   166    1
    44   163   162    1
    45   163   164    2
    46   162   161    1
    47    95    97   ar
    48    70    69    1
    49   211   210    2
    50    99    97   ar
    51    63    62    2
    52   210   209    1
    53    86    87    1
    54   166   167    1
    55    88    87    1
    56   161   167    1
    57   201   200    1
    58   201   202    1
    59   201   204    1
    60   202   203    2
    61   202   208   am
    62    62    61    1
    63    62    68   am
    64    69    68    1
    65    69    72    1
    66   208   209    1
    67   209   212    1
    68   205   204    1
    69   205   206    1
    70    61    60    1
    71    61    64    1
    72   158   157    2
    73   195   194    2
    74    72    73    1
    75   194   193    1
    76   206   207    1
    77    67    65    1
    78    64    65    1
    79   157   156    1
    80    65    66    1
    81    75    73   ar
    82    75    77   ar
    83    73    74   ar
    84   159   156    1
    85   159   160    1
    86   107   105    1
    87   156   155    1
    88    57    56    2
    89   193   192    1
    90   193   196    1
    91    77    78   ar
    92    49    48    2
    93    74    76   ar
    94   104   105    1
    95   104   101    1
    96   196   197    1
    97    56    55    1
    98   105   106    1
    99    52    51    1
   100    78    76   ar
   101    78    79    1
   102    48    47    1
   103    48    54   am
   104   100   101    1
   105   152   151    2
   106    47    46    1
   107    47    50    1
   108   101   102    1
   109    55    54    1
   110    55    58    1
   111   197   199    1
   112   197   198    1
   113    51    50    1
   114    51    53    1
   115   102   103    2
   116   151   150    1
   117   150   153    1
   118   150   149    1
   119   153   154    1
   120    58    59    1
   121   144   143    2
   122    18    17    1
   123   149   143   am
   124   143   142    1
   125   114   112    1
   126     9     7   ar
   127   146   148    1
   128   146   145    1
   129   146   147    1
   130    17    16    1
   131    34    32   ar
   132     8     7   ar
   133    38    37    2
   134     7     6    1
   135   112   113    1
   136   112   109    1
   137   142   145    1
   138   142   141    1
   139    33    32   ar
   140    37    36    1
   141    32    31    1
   142     6     5    1
   143    16    15    1
   144   137   136    2
   145   108   109    1
   146   140   138    1
   147   109   110    1
   148    36    35    1
   149    36    39    1
   150    31    30    1
   151    15    14    1
   152    45    43   ar
   153    45    44   ar
   154   133   132    1
   155    43    41   ar
   156     5     2    1
   157   136   135    1
   158    44    42   ar
   159    41    40   ar
   160   110   111    2
   161    24    23    1
   162    42    40   ar
   163    40    39    1
   164   138   135    1
   165   138   139    1
   166    30    27    1
   167   135   134    1
   168     2     1    1
   169     2     3    1
   170    14    11    1
   171   132   131   ar
   172   132   130   ar
   173    23    20    1
   174    23    25    1
   175    13    12    2
   176    20    19    1
   177    20    21    1
   178   131   129   ar
   179   130   128   ar
   180    27    28    1
   181    27    26    1
   182    12    19   am
   183    12    11    1
   184     3     4    2
   185   120   119    1
   186    11    10    1
   187    29    28    2
   188    22    21    2
   189   129   127   ar
   190   128   127   ar
   191   119   121    1
   192   119   116    1
   193   127   126    1
   194   115   116    1
   195   116   117    1
   196   124   125    2
   197   124   123    1
   198   123   126    1
   199   123   122    1
   200   117   118    2
