@<TRIPOS>MOLECULE
tmp/1j78B00.pdb
 88 82 0 0 0
SMALL
GASTEIGER

@<TRIPOS>ATOM
      1  N        -18.8570  -62.7310   12.5600 N.3   338  LYS338     -0.1231
      2  CA       -20.2930  -62.9440   12.6770 C.3   338  LYS338      0.1693
      3  C        -20.8210  -64.0670   11.7750 C.2   338  LYS338      0.2591
      4  O        -21.5430  -64.9530   12.2370 O.2   338  LYS338     -0.2718
      5  CB       -21.0270  -61.6280   12.3770 C.3   338  LYS338      0.0285
      6  CG       -22.5330  -61.6610   12.5910 C.3   338  LYS338      0.0035
      7  CD       -23.1110  -60.2440   12.5690 C.3   338  LYS338      0.0206
      8  CE       -24.6330  -60.2340   12.5360 C.3   338  LYS338      0.1093
      9  NZ       -25.2450  -60.8980   13.7190 N.3   338  LYS338     -0.1314
     10  N        -20.4600  -64.0370   10.4960 N.am  339  VAL339     -0.1980
     11  CA       -20.9300  -65.0510    9.5530 C.3   339  VAL339      0.1595
     12  C        -20.1670  -66.3750    9.6510 C.2   339  VAL339      0.2287
     13  O        -20.7000  -67.4240    9.3070 O.2   339  VAL339     -0.2864
     14  CB       -20.8560  -64.5320    8.0920 C.3   339  VAL339      0.0276
     15  CG1      -19.4060  -64.4520    7.6290 C.3   339  VAL339      0.0022
     16  CG2      -21.6650  -65.4290    7.1810 C.3   339  VAL339      0.0022
     17  N        -21.7970  -69.2790   12.6110 N.3   342  PRO342     -0.2102
     18  CA       -22.8410  -70.2110   12.1690 C.3   342  PRO342      0.1504
     19  C        -22.4400  -71.0020   10.9270 C.2   342  PRO342      0.2576
     20  O        -22.8730  -72.1360   10.7350 O.2   342  PRO342     -0.2718
     21  CB       -24.0430  -69.2960   11.9180 C.3   342  PRO342      0.0282
     22  CG       -23.3980  -68.0010   11.4810 C.3   342  PRO342      0.0208
     23  CD       -22.2460  -67.8790   12.4640 C.3   342  PRO342      0.0893
     24  N        -21.6080  -70.4040   10.0860 N.am  343  THR343     -0.1953
     25  CA       -21.1720  -71.0770    8.8750 C.3   343  THR343      0.1897
     26  C        -20.3890  -72.3350    9.2190 C.2   343  THR343      0.2313
     27  O        -20.7310  -73.4230    8.7570 O.2   343  THR343     -0.2863
     28  CB       -20.3160  -70.1430    7.9970 C.3   343  THR343      0.1794
     29  OG1      -21.1480  -69.1010    7.4680 O.3   343  THR343     -0.2208
     30  CG2      -19.6920  -70.9080    6.8460 C.3   343  THR343      0.0378
     31  N        -22.7090  -74.9360   11.0610 N.3   346  SER346     -0.1217
     32  CA       -23.6130  -75.6370   10.1530 C.3   346  SER346      0.1889
     33  C        -22.9200  -76.7820    9.4090 C.2   346  SER346      0.2288
     34  O        -23.5770  -77.7220    8.9580 O.2   346  SER346     -0.2866
     35  CB       -24.2130  -74.6450    9.1470 C.3   346  SER346      0.2089
     36  OG       -25.2230  -75.2470    8.3560 O.3   346  SER346     -0.2183
     37  N        -25.1120  -73.1200    2.1110 N.3   367  LEU367     -0.1245
     38  CA       -24.4200  -72.1170    2.9090 C.3   367  LEU367      0.1561
     39  C        -23.4160  -71.3330    2.0790 C.2   367  LEU367      0.2260
     40  O        -22.9990  -70.2440    2.4700 O.2   367  LEU367     -0.2867
     41  CB       -23.7250  -72.7560    4.1200 C.3   367  LEU367      0.0270
     42  CG       -22.5500  -73.7160    3.9260 C.3   367  LEU367      0.0019
     43  CD1      -21.9920  -74.1070    5.2860 C.3   367  LEU367      0.0001
     44  CD2      -22.9970  -74.9480    3.1680 C.3   367  LEU367      0.0001
     45  N        -25.3590  -68.6320    0.8420 N.3   370  GLU370     -0.1231
     46  CA       -25.6510  -67.7640    1.9740 C.3   370  GLU370      0.1699
     47  C        -24.4440  -66.8870    2.2870 C.2   370  GLU370      0.2592
     48  O        -24.5810  -65.6900    2.5150 O.2   370  GLU370     -0.2718
     49  CB       -26.0210  -68.6070    3.1980 C.3   370  GLU370      0.0402
     50  CG       -27.3430  -69.3540    3.0460 C.3   370  GLU370      0.1161
     51  CD       -27.5680  -70.3960    4.1270 C.2   370  GLU370      0.3649
     52  OE1      -28.7150  -70.8750    4.2550 O.co2 370  GLU370     -0.2457
     53  OE2      -26.6010  -70.7430    4.8410 O.co2 370  GLU370     -0.2457
     54  N        -23.2610  -67.4880    2.2690 N.am  371  LEU371     -0.1980
     55  CA       -22.0330  -66.7680    2.5650 C.3   371  LEU371      0.1596
     56  C        -21.7910  -65.6130    1.6010 C.2   371  LEU371      0.2287
     57  O        -21.5830  -64.4750    2.0330 O.2   371  LEU371     -0.2864
     58  CB       -20.8450  -67.7350    2.5460 C.3   371  LEU371      0.0297
     59  CG       -19.4740  -67.2540    3.0390 C.3   371  LEU371      0.0022
     60  CD1      -19.5860  -66.5850    4.3960 C.3   371  LEU371      0.0001
     61  CD2      -18.5410  -68.4520    3.1240 C.3   371  LEU371      0.0001
     62  N        -24.2490  -62.7670    2.2320 N.3   374  PHE374     -0.1241
     63  CA       -23.8950  -61.9850    3.4100 C.3   374  PHE374      0.1605
     64  C        -22.6870  -61.0970    3.0900 C.2   374  PHE374      0.2264
     65  O        -22.7200  -59.8850    3.3090 O.2   374  PHE374     -0.2867
     66  CB       -23.5830  -62.9240    4.5830 C.3   374  PHE374      0.0534
     67  CG       -23.0480  -62.2260    5.8030 C.ar  374  PHE374     -0.0203
     68  CD1      -21.6920  -61.9140    5.9050 C.ar  374  PHE374     -0.0042
     69  CD2      -23.8940  -61.9000    6.8620 C.ar  374  PHE374     -0.0042
     70  CE1      -21.1860  -61.2910    7.0470 C.ar  374  PHE374     -0.0003
     71  CE2      -23.3970  -61.2750    8.0130 C.ar  374  PHE374     -0.0003
     72  CZ       -22.0420  -60.9720    8.1050 C.ar  374  PHE374     -0.0000
     73  N        -27.2310  -56.9690   11.9850 N.3   442  ASP442     -0.1239
     74  CA       -28.4650  -57.7050   11.7210 C.3   442  ASP442      0.1674
     75  C        -29.5010  -56.7810   11.0780 C.2   442  ASP442      0.2266
     76  O        -30.1230  -57.1330   10.0760 O.2   442  ASP442     -0.2867
     77  CB       -29.0540  -58.2910   13.0110 C.3   442  ASP442      0.1410
     78  CG       -28.2290  -59.4350   13.5700 C.2   442  ASP442      0.3668
     79  OD1      -27.6680  -60.2060   12.7660 O.co2 442  ASP442     -0.2456
     80  OD2      -28.1550  -59.5710   14.8150 O.co2 442  ASP442     -0.2456
     81  N        -28.4490  -55.6380    7.4550 N.3   445  LEU445     -0.1245
     82  CA       -28.5160  -56.7320    6.4870 C.3   445  LEU445      0.1561
     83  C        -29.8990  -56.8660    5.8640 C.2   445  LEU445      0.2260
     84  O        -30.0420  -57.3980    4.7610 O.2   445  LEU445     -0.2867
     85  CB       -28.1480  -58.0670    7.1380 C.3   445  LEU445      0.0270
     86  CG       -26.6730  -58.3740    7.3850 C.3   445  LEU445      0.0019
     87  CD1      -26.5430  -59.7790    7.9540 C.3   445  LEU445      0.0001
     88  CD2      -25.8950  -58.2540    6.0860 C.3   445  LEU445      0.0001
@<TRIPOS>BOND
     1    45    46    1
     2    56    57    2
     3    56    55    1
     4    46    47    1
     5    46    49    1
     6    39    40    2
     7    39    38    1
     8    37    38    1
     9    62    63    1
    10    54    47   am
    11    54    55    1
    12    47    48    2
    13    58    55    1
    14    58    59    1
    15    38    41    1
    16    59    61    1
    17    59    60    1
    18    50    49    1
    19    50    51    1
    20    64    65    2
    21    64    63    1
    22    44    42    1
    23    63    66    1
    24    42    41    1
    25    42    43    1
    26    51    52   ar
    27    51    53   ar
    28    66    67    1
    29    84    83    2
    30    67    68   ar
    31    67    69   ar
    32    83    82    1
    33    68    70   ar
    34    88    86    1
    35    82    85    1
    36    82    81    1
    37    30    28    1
    38    69    71   ar
    39    70    72   ar
    40    85    86    1
    41    16    14    1
    42    86    87    1
    43    29    28    1
    44    15    14    1
    45    28    25    1
    46    71    72   ar
    47    14    11    1
    48    36    35    1
    49    27    26    2
    50    25    26    1
    51    25    24    1
    52    34    33    2
    53    35    32    1
    54    13    12    2
    55    33    32    1
    56    11    12    1
    57    11    10    1
    58    76    75    2
    59    24    19   am
    60    32    31    1
    61    10     3   am
    62    20    19    2
    63    19    18    1
    64    75    74    1
    65    22    21    1
    66    22    23    1
    67    74    73    1
    68    74    77    1
    69     3     4    2
    70     3     2    1
    71    21    18    1
    72    18    17    1
    73     5     6    1
    74     5     2    1
    75    23    17    1
    76     8     7    1
    77     8     9    1
    78     1     2    1
    79     7     6    1
    80    79    78   ar
    81    77    78    1
    82    78    80   ar
