@<TRIPOS>MOLECULE
tmp/1j7eA00.pdb
 204 190 0 0 0
SMALL
GASTEIGER

@<TRIPOS>ATOM
      1  N         22.2950   80.1540   23.6600 N.3     2  GLU2       -0.1245
      2  CA        23.3610   81.1420   23.5470 C.3     2  GLU2        0.1567
      3  C         23.3110   82.1730   24.6660 C.2     2  GLU2        0.2260
      4  O         24.2940   82.8710   24.9230 O.2     2  GLU2       -0.2867
      5  CB        23.2960   81.8510   22.1960 C.3     2  GLU2        0.0388
      6  CG        24.5330   82.6820   21.9050 C.3     2  GLU2        0.1160
      7  CD        24.4380   83.4320   20.5970 C.2     2  GLU2        0.3649
      8  OE1       24.1810   82.7870   19.5580 O.co2   2  GLU2       -0.2457
      9  OE2       24.6260   84.6660   20.6100 O.co2   2  GLU2       -0.2457
     10  N         27.4340   82.9660   25.4310 N.3     6  VAL6       -0.1245
     11  CA        28.2470   84.1770   25.4650 C.3     6  VAL6        0.1561
     12  C         29.0500   84.1350   26.7540 C.2     6  VAL6        0.2260
     13  O         30.2290   84.4880   26.7910 O.2     6  VAL6       -0.2867
     14  CB        27.3640   85.4390   25.4950 C.3     6  VAL6        0.0252
     15  CG1       28.2320   86.6850   25.4610 C.3     6  VAL6        0.0019
     16  CG2       26.3920   85.4180   24.3330 C.3     6  VAL6        0.0019
     17  N         31.8870   80.9990   26.8110 N.3     9  GLU9       -0.1245
     18  CA        33.1630   81.2570   26.1520 C.3     9  GLU9        0.1567
     19  C         33.9350   82.3440   26.8980 C.2     9  GLU9        0.2260
     20  O         35.1580   82.4370   26.7800 O.2     9  GLU9       -0.2867
     21  CB        32.9480   81.6630   24.6870 C.3     9  GLU9        0.0388
     22  CG        32.2720   80.5860   23.8460 C.3     9  GLU9        0.1160
     23  CD        32.2200   80.9260   22.3660 C.2     9  GLU9        0.3649
     24  OE1       31.7990   82.0510   22.0240 O.co2   9  GLU9       -0.2457
     25  OE2       32.5920   80.0600   21.5430 O.co2   9  GLU9       -0.2457
     26  N         38.9790   86.6760   25.5790 N.3    18  PHE18      -0.1241
     27  CA        37.6110   86.8770   25.1330 C.3    18  PHE18       0.1605
     28  C         37.5260   88.2620   24.5070 C.2    18  PHE18       0.2264
     29  O         36.6150   88.5470   23.7320 O.2    18  PHE18      -0.2867
     30  CB        36.6360   86.7490   26.3120 C.3    18  PHE18       0.0534
     31  CG        35.2040   87.0570   25.9600 C.ar   18  PHE18      -0.0203
     32  CD1       34.7120   88.3560   26.0570 C.ar   18  PHE18      -0.0042
     33  CD2       34.3470   86.0460   25.5300 C.ar   18  PHE18      -0.0042
     34  CE1       33.3850   88.6440   25.7320 C.ar   18  PHE18      -0.0003
     35  CE2       33.0140   86.3240   25.2020 C.ar   18  PHE18      -0.0003
     36  CZ        32.5360   87.6230   25.3040 C.ar   18  PHE18      -0.0000
     37  N         38.9490   87.8840   20.8930 N.3    21  LEU21      -0.1231
     38  CA        37.9570   87.2630   20.0310 C.3    21  LEU21       0.1693
     39  C         36.9830   88.3350   19.5940 C.2    21  LEU21       0.2592
     40  O         36.6680   88.4670   18.4140 O.2    21  LEU21      -0.2718
     41  CB        37.2040   86.1710   20.7940 C.3    21  LEU21       0.0284
     42  CG        35.9660   85.5460   20.1310 C.3    21  LEU21       0.0019
     43  CD1       36.3390   84.9310   18.7870 C.3    21  LEU21       0.0001
     44  CD2       35.3740   84.4910   21.0510 C.3    21  LEU21       0.0001
     45  N         36.5090   89.1050   20.5640 N.am   22  SER22      -0.1952
     46  CA        35.5640   90.1760   20.3000 C.3    22  SER22       0.1924
     47  C         36.1480   91.2240   19.3690 C.2    22  SER22       0.2314
     48  O         35.4310   91.8290   18.5760 O.2    22  SER22      -0.2863
     49  CB        35.1390   90.8320   21.6160 C.3    22  SER22       0.2116
     50  OG        34.3920   89.9240   22.4070 O.3    22  SER22      -0.2180
     51  N         35.8770   89.6370   16.0550 N.3    25  LEU25      -0.1231
     52  CA        34.4600   89.5530   15.7470 C.3    25  LEU25       0.1693
     53  C         33.8470   90.8690   15.2800 C.2    25  LEU25       0.2592
     54  O         33.1090   90.8930   14.2920 O.2    25  LEU25      -0.2718
     55  CB        33.6930   89.0130   16.9550 C.3    25  LEU25       0.0284
     56  CG        32.2200   88.6780   16.7150 C.3    25  LEU25       0.0019
     57  CD1       32.0720   87.7690   15.5110 C.3    25  LEU25       0.0001
     58  CD2       31.6620   87.9980   17.9360 C.3    25  LEU25       0.0001
     59  N         34.1520   91.9640   15.9700 N.am   26  TYR26      -0.1976
     60  CA        33.5830   93.2510   15.5850 C.3    26  TYR26       0.1639
     61  C         34.2790   93.9300   14.4150 C.2    26  TYR26       0.2290
     62  O         33.6480   94.6860   13.6880 O.2    26  TYR26      -0.2864
     63  CB        33.5240   94.1830   16.7950 C.3    26  TYR26       0.0560
     64  CG        32.4310   93.7790   17.7460 C.ar   26  TYR26      -0.0198
     65  CD1       31.0930   94.0410   17.4520 C.ar   26  TYR26      -0.0009
     66  CD2       32.7200   93.0450   18.8930 C.ar   26  TYR26      -0.0009
     67  CE1       30.0730   93.5750   18.2720 C.ar   26  TYR26       0.0417
     68  CE2       31.7090   92.5730   19.7160 C.ar   26  TYR26       0.0417
     69  CZ        30.3910   92.8390   19.3990 C.ar   26  TYR26       0.1957
     70  OH        29.4030   92.3430   20.2080 O.3    26  TYR26      -0.2866
     71  N         32.5200   92.9330   11.4490 N.3    29  LYS29      -0.1231
     72  CA        31.2250   93.5910   11.3220 C.3    29  LYS29       0.1693
     73  C         31.3170   95.0180   10.8250 C.2    29  LYS29       0.2592
     74  O         30.4270   95.4780   10.1230 O.2    29  LYS29      -0.2718
     75  CB        30.4770   93.5780   12.6610 C.3    29  LYS29       0.0285
     76  CG        29.9700   92.2090   13.0980 C.3    29  LYS29       0.0035
     77  CD        29.0780   92.3100   14.3350 C.3    29  LYS29       0.0206
     78  CE        28.4170   90.9740   14.6460 C.3    29  LYS29       0.1093
     79  NZ        27.6460   91.0120   15.9200 N.3    29  LYS29      -0.1314
     80  N         32.3810   95.7270   11.1900 N.am   30  PHE30      -0.1976
     81  CA        32.5260   97.1110   10.7550 C.3    30  PHE30       0.1639
     82  C         33.7870   97.3110    9.9300 C.2    30  PHE30       0.2290
     83  O         34.7900   97.8300   10.4250 O.2    30  PHE30      -0.2864
     84  CB        32.5450   98.0530   11.9580 C.3    30  PHE30       0.0560
     85  CG        31.3380   97.9350   12.8340 C.ar   30  PHE30      -0.0200
     86  CD1       31.3350   97.0660   13.9200 C.ar   30  PHE30      -0.0042
     87  CD2       30.1910   98.6700   12.5570 C.ar   30  PHE30      -0.0042
     88  CE1       30.2100   96.9310   14.7170 C.ar   30  PHE30      -0.0003
     89  CE2       29.0590   98.5440   13.3460 C.ar   30  PHE30      -0.0003
     90  CZ        29.0650   97.6730   14.4300 C.ar   30  PHE30      -0.0000
     91  N         34.0680   99.9810   21.1530 N.3    41  LEU41      -0.1245
     92  CA        32.8580   99.1700   21.2110 C.3    41  LEU41       0.1561
     93  C         33.1700   97.8650   21.9390 C.2    41  LEU41       0.2260
     94  O         32.3700   97.3890   22.7460 O.2    41  LEU41      -0.2867
     95  CB        32.3450   98.8770   19.7960 C.3    41  LEU41       0.0270
     96  CG        31.1870   97.8870   19.6280 C.3    41  LEU41       0.0019
     97  CD1       29.9620   98.3880   20.3860 C.3    41  LEU41       0.0001
     98  CD2       30.8710   97.7180   18.1330 C.3    41  LEU41       0.0001
     99  N         31.5100   96.2020   25.1550 N.3    45  VAL45      -0.1245
    100  CA        30.7770   94.9580   24.9270 C.3    45  VAL45       0.1561
    101  C         31.2250   93.9150   25.9570 C.2    45  VAL45       0.2260
    102  O         30.3940   93.3160   26.6450 O.2    45  VAL45      -0.2867
    103  CB        31.0030   94.4190   23.4950 C.3    45  VAL45       0.0252
    104  CG1       30.4410   93.0070   23.3640 C.3    45  VAL45       0.0019
    105  CG2       30.3210   95.3370   22.4930 C.3    45  VAL45       0.0019
    106  N         29.9150   94.4950   29.6010 N.3    48  LEU48      -0.1231
    107  CA        28.6060   93.9820   29.9970 C.3    48  LEU48       0.1693
    108  C         28.5650   92.4620   29.9780 C.2    48  LEU48       0.2592
    109  O         27.8420   91.8430   30.7620 O.2    48  LEU48      -0.2718
    110  CB        27.5000   94.5490   29.0910 C.3    48  LEU48       0.0284
    111  CG        27.1900   93.9790   27.7010 C.3    48  LEU48       0.0019
    112  CD1       26.4910   92.6290   27.8100 C.3    48  LEU48       0.0001
    113  CD2       26.2840   94.9590   26.9690 C.3    48  LEU48       0.0001
    114  N         29.3360   91.8590   29.0810 N.am   49  THR49      -0.1953
    115  CA        29.3660   90.4090   28.9900 C.3    49  THR49       0.1897
    116  C         29.9500   89.8560   30.2880 C.2    49  THR49       0.2313
    117  O         29.6920   88.7130   30.6620 O.2    49  THR49      -0.2863
    118  CB        30.2130   89.9390   27.7840 C.3    49  THR49       0.1794
    119  OG1       29.7390   90.5760   26.5900 O.3    49  THR49      -0.2208
    120  CG2       30.1030   88.4300   27.6120 C.3    49  THR49       0.0378
    121  N         22.3680   96.4360   27.6870 N.3    57  THR57      -0.1218
    122  CA        22.5080   96.2010   26.2550 C.3    57  THR57       0.1862
    123  C         21.7570   97.3540   25.6070 C.2    57  THR57       0.2287
    124  O         21.9550   97.6750   24.4360 O.2    57  THR57      -0.2866
    125  CB        21.8490   94.8700   25.8280 C.3    57  THR57       0.1770
    126  OG1       22.4460   93.7850   26.5490 O.3    57  THR57      -0.2211
    127  CG2       22.0310   94.6390   24.3350 C.3    57  THR57       0.0375
    128  N         23.8780  100.6420   25.2540 N.3    60  LEU60      -0.1231
    129  CA        24.6300  100.6950   24.0040 C.3    60  LEU60       0.1693
    130  C         23.8290  101.3520   22.8870 C.2    60  LEU60       0.2592
    131  O         24.2830  102.3220   22.2760 O.2    60  LEU60      -0.2718
    132  CB        25.0410   99.2880   23.5670 C.3    60  LEU60       0.0284
    133  CG        26.1450   98.5980   24.3650 C.3    60  LEU60       0.0019
    134  CD1       26.3960   97.2100   23.7930 C.3    60  LEU60       0.0001
    135  CD2       27.4120   99.4370   24.3080 C.3    60  LEU60       0.0001
    136  N         22.6430  100.8130   22.6180 N.am   61  SER61      -0.1952
    137  CA        21.7800  101.3500   21.5750 C.3    61  SER61       0.1924
    138  C         21.7830  102.8720   21.6090 C.2    61  SER61       0.2314
    139  O         22.2230  103.5230   20.6610 O.2    61  SER61      -0.2863
    140  CB        20.3490  100.8380   21.7550 C.3    61  SER61       0.2116
    141  OG        20.2710   99.4330   21.5340 O.3    61  SER61      -0.2180
    142  N         24.9520  104.7060   21.0170 N.3    64  SER64      -0.1217
    143  CA        25.3800  104.5050   19.6350 C.3    64  SER64       0.1889
    144  C         24.9160  105.6310   18.7050 C.2    64  SER64       0.2288
    145  O         25.3950  105.7530   17.5770 O.2    64  SER64      -0.2866
    146  CB        24.8620  103.1570   19.1230 C.3    64  SER64       0.2089
    147  OG        25.4440  102.8210   17.8770 O.3    64  SER64      -0.2183
    148  N         31.5950  104.7310   18.9140 N.3    68  PHE68      -0.1241
    149  CA        31.4230  103.4620   18.2210 C.3    68  PHE68       0.1605
    150  C         31.3840  103.5430   16.6970 C.2    68  PHE68       0.2264
    151  O         31.1120  104.5960   16.1230 O.2    68  PHE68      -0.2867
    152  CB        30.1420  102.7790   18.7080 C.3    68  PHE68       0.0534
    153  CG        30.0290  102.6850   20.2040 C.ar   68  PHE68      -0.0203
    154  CD1       31.1430  102.3860   20.9860 C.ar   68  PHE68      -0.0042
    155  CD2       28.7990  102.8710   20.8320 C.ar   68  PHE68      -0.0042
    156  CE1       31.0350  102.2740   22.3700 C.ar   68  PHE68      -0.0003
    157  CE2       28.6790  102.7600   22.2190 C.ar   68  PHE68      -0.0003
    158  CZ        29.8000  102.4610   22.9890 C.ar   68  PHE68      -0.0000
    159  N         27.2840  101.6100   11.1470 N.3    71  HIS71      -0.1241
    160  CA        26.8390  100.9070    9.9470 C.3    71  HIS71       0.1621
    161  C         26.0530  101.9170    9.1170 C.2    71  HIS71       0.2264
    162  O         25.5240  102.8870    9.6500 O.2    71  HIS71      -0.2867
    163  CB        25.9080   99.7420   10.2900 C.3    71  HIS71       0.0745
    164  CG        26.6160   98.4670   10.6200 C.ar   71  HIS71       0.0817
    165  ND1       27.5980   97.9320    9.8150 N.ar   71  HIS71      -0.2268
    166  CD2       26.4480   97.5940   11.6410 C.ar   71  HIS71       0.1154
    167  CE1       28.0040   96.7840   10.3260 C.ar   71  HIS71       0.1986
    168  NE2       27.3220   96.5550   11.4330 N.ar   71  HIS71      -0.2212
    169  N         22.5060  104.0220   10.3390 N.3    74  THR74      -0.1218
    170  CA        22.3570  103.9620   11.7850 C.3    74  THR74       0.1862
    171  C         21.5420  105.1610   12.2430 C.2    74  THR74       0.2287
    172  O         20.8150  105.0870   13.2320 O.2    74  THR74      -0.2866
    173  CB        23.7220  103.9890   12.4910 C.3    74  THR74       0.1770
    174  OG1       24.4460  102.7980   12.1680 O.3    74  THR74      -0.2211
    175  CG2       23.5440  104.0680   13.9930 C.3    74  THR74       0.0375
    176  N         16.1090   98.6790   18.2460 N.3    83  LEU83      -0.1245
    177  CA        17.0300   97.6290   17.8360 C.3    83  LEU83       0.1561
    178  C         16.7750   97.2200   16.3850 C.2    83  LEU83       0.2260
    179  O         16.6720   96.0380   16.0450 O.2    83  LEU83      -0.2867
    180  CB        16.9180   96.4330   18.7790 C.3    83  LEU83       0.0270
    181  CG        17.2470   96.7940   20.2330 C.3    83  LEU83       0.0019
    182  CD1       17.2370   95.5460   21.0980 C.3    83  LEU83       0.0001
    183  CD2       18.6070   97.4620   20.2970 C.3    83  LEU83       0.0001
    184  N         18.8260   98.3060   14.4430 N.3    85  MET85      -0.1230
    185  CA        20.2510   98.2670   14.1560 C.3    85  MET85       0.1702
    186  C         20.7570   96.8390   13.9690 C.2    85  MET85       0.2592
    187  O         21.4710   96.5460   13.0080 O.2    85  MET85      -0.2718
    188  CB        21.0040   98.9470   15.3050 C.3    85  MET85       0.0401
    189  CG        20.3490  100.2530   15.7560 C.3    85  MET85       0.0596
    190  SD        21.0580  100.9830   17.2440 S.3    85  MET85      -0.1393
    191  CE        20.1570  100.1130   18.5130 C.3    85  MET85       0.0692
    192  N         20.3870   95.9530   14.8900 N.am   86  ALA86      -0.1980
    193  CA        20.8100   94.5580   14.8260 C.3    86  ALA86       0.1597
    194  C         20.3350   93.8830   13.5410 C.2    86  ALA86       0.2287
    195  O         20.6450   92.7160   13.2950 O.2    86  ALA86      -0.2864
    196  CB        20.2850   93.8000   16.0380 C.3    86  ALA86       0.0319
    197  N         35.0060   83.3760   10.8610 N.3   134  LEU134     -0.1245
    198  CA        35.5890   83.7560   12.1480 C.3   134  LEU134      0.1561
    199  C         36.6370   82.7580   12.6240 C.2   134  LEU134      0.2260
    200  O         37.7380   83.1420   12.9850 O.2   134  LEU134     -0.2867
    201  CB        34.4960   83.9010   13.2190 C.3   134  LEU134      0.0270
    202  CG        34.9280   84.2660   14.6570 C.3   134  LEU134      0.0019
    203  CD1       35.6180   85.6320   14.6730 C.3   134  LEU134      0.0001
    204  CD2       33.7100   84.2940   15.5790 C.3   134  LEU134      0.0001
@<TRIPOS>BOND
     1   161   162    2
     2   161   160    1
     3   165   167   ar
     4   165   164   ar
     5    82    83    2
     6    82    81    1
     7   160   163    1
     8   160   159    1
     9    74    73    2
    10   163   164    1
    11   167   168   ar
    12   169   170    1
    13   164   166   ar
    14    81    80    1
    15    81    84    1
    16    73    80   am
    17    73    72    1
    18   197   198    1
    19    72    71    1
    20    72    75    1
    21   168   166   ar
    22   170   171    1
    23   170   173    1
    24    84    85    1
    25   198   199    1
    26   198   201    1
    27   174   173    1
    28   171   172    2
    29   173   175    1
    30    87    85   ar
    31    87    89   ar
    32   199   200    2
    33    75    76    1
    34    85    86   ar
    35   187   186    2
    36    76    77    1
    37   201   202    1
    38   195   194    2
    39    89    90   ar
    40   194   193    1
    41    62    61    2
    42    86    88   ar
    43   186   185    1
    44   186   192   am
    45   185   184    1
    46   185   188    1
    47    54    53    2
    48    77    78    1
    49    61    60    1
    50    90    88   ar
    51    78    79    1
    52   202   203    1
    53   202   204    1
    54   193   192    1
    55   193   196    1
    56    53    52    1
    57    53    59   am
    58   188   189    1
    59    57    56    1
    60    60    59    1
    61    60    63    1
    62    52    51    1
    63    52    55    1
    64   189   190    1
    65   179   178    2
    66   151   150    2
    67   178   177    1
    68   150   149    1
    69    56    55    1
    70    56    58    1
    71    63    64    1
    72   190   191    1
    73    65    64   ar
    74    65    67   ar
    75   145   144    2
    76    64    66   ar
    77   177   176    1
    78   177   180    1
    79   147   146    1
    80    98    96    1
    81   149   152    1
    82   149   148    1
    83    67    69   ar
    84    40    39    2
    85    48    47    2
    86   144   143    1
    87   152   153    1
    88   180   181    1
    89    43    42    1
    90    66    68   ar
    91   146   143    1
    92    47    46    1
    93    69    68   ar
    94    69    70    1
    95     8     7   ar
    96    39    38    1
    97    39    45   am
    98    96    95    1
    99    96    97    1
   100   143   142    1
   101    95    92    1
   102    38    41    1
   103    38    37    1
   104    42    41    1
   105    42    44    1
   106   153   155   ar
   107   153   154   ar
   108   181   183    1
   109   181   182    1
   110    46    45    1
   111    46    49    1
   112     7     9   ar
   113     7     6    1
   114   139   138    2
   115   155   157   ar
   116   154   156   ar
   117    91    92    1
   118    92    93    1
   119   141   140    1
   120    25    23   ar
   121   137   138    1
   122   137   140    1
   123   137   136    1
   124    49    50    1
   125     6     5    1
   126    93    94    2
   127    24    23   ar
   128     5     2    1
   129   157   158   ar
   130   131   130    2
   131    23    22    1
   132   156   158   ar
   133   105   103    1
   134   136   130   am
   135   130   129    1
   136   104   103    1
   137   103   100    1
   138     2     1    1
   139     2     3    1
   140   132   129    1
   141   132   133    1
   142    29    28    2
   143   134   133    1
   144    22    21    1
   145   129   128    1
   146   135   133    1
   147    16    14    1
   148   127   125    1
   149   124   123    2
   150    28    27    1
   151     3     4    2
   152    21    18    1
   153   100    99    1
   154   100   101    1
   155    27    26    1
   156    27    30    1
   157    35    36   ar
   158    35    33   ar
   159    36    34   ar
   160    10    11    1
   161    15    14    1
   162    11    14    1
   163    11    12    1
   164    33    31   ar
   165   123   122    1
   166    34    32   ar
   167   125   122    1
   168   125   126    1
   169   101   102    2
   170    31    32   ar
   171    31    30    1
   172    18    17    1
   173    18    19    1
   174   122   121    1
   175   119   118    1
   176    12    13    2
   177    20    19    2
   178   113   111    1
   179   120   118    1
   180   111   112    1
   181   111   110    1
   182   118   115    1
   183   115   114    1
   184   115   116    1
   185   114   108   am
   186   110   107    1
   187   106   107    1
   188   108   107    1
   189   108   109    2
   190   116   117    2
