@<TRIPOS>MOLECULE
tmp/1j7kA00.pdb
 186 180 0 0 0
SMALL
GASTEIGER

@<TRIPOS>ATOM
      1  N         60.4090  -28.5570  -34.1260 N.3     1  LEU1       -0.1231
      2  CA        59.9910  -29.2030  -32.8470 C.3     1  LEU1        0.1693
      3  C         59.3960  -28.1930  -31.8650 C.2     1  LEU1        0.2592
      4  O         59.0130  -28.5520  -30.7540 O.2     1  LEU1       -0.2718
      5  CB        61.1880  -29.9050  -32.1980 C.3     1  LEU1        0.0284
      6  CG        61.7280  -31.1510  -32.9120 C.3     1  LEU1        0.0019
      7  CD1       63.0410  -31.5780  -32.2840 C.3     1  LEU1        0.0001
      8  CD2       60.7050  -32.2740  -32.8300 C.3     1  LEU1        0.0001
      9  N         59.3210  -26.9320  -32.2810 N.am    2  ARG2       -0.1966
     10  CA        58.7700  -25.8710  -31.4380 C.3     2  ARG2        0.1714
     11  C         57.2470  -25.8570  -31.4440 C.2     2  ARG2        0.2458
     12  O         56.6190  -26.1600  -32.4580 O.2     2  ARG2       -0.2730
     13  CB        59.2590  -24.4990  -31.9090 C.3     2  ARG2        0.0347
     14  CG        60.6700  -24.1430  -31.5070 C.3     2  ARG2        0.0492
     15  CD        61.0390  -22.7730  -32.0530 C.3     2  ARG2        0.2205
     16  NE        62.3350  -22.3270  -31.5590 N.pl3   2  ARG2       -0.0865
     17  CZ        62.9750  -21.2490  -31.9960 C.cat   2  ARG2        0.5346
     18  NH1       62.4390  -20.4960  -32.9490 N.pl3   2  ARG2        0.1354
     19  NH2       64.1520  -20.9270  -31.4840 N.pl3   2  ARG2        0.1354
     20  N         56.6310  -25.4990  -30.3060 N.am    3  PRO3       -0.2727
     21  CA        55.1700  -25.4430  -30.2060 C.3     3  PRO3        0.1402
     22  C         54.6500  -24.2440  -30.9930 C.2     3  PRO3        0.2269
     23  O         55.4080  -23.3270  -31.3090 O.2     3  PRO3       -0.2865
     24  CB        54.9350  -25.2990  -28.7060 C.3     3  PRO3        0.0296
     25  CG        56.1160  -24.4950  -28.2700 C.3     3  PRO3        0.0237
     26  CD        57.2550  -25.1660  -29.0130 C.3     3  PRO3        0.0939
     27  N         50.2000  -25.6550  -26.3010 N.3     8  GLU8       -0.1231
     28  CA        51.1500  -26.6960  -26.6840 C.3     8  GLU8        0.1699
     29  C         52.4850  -26.5340  -25.9540 C.2     8  GLU8        0.2592
     30  O         53.3610  -27.3940  -26.0560 O.2     8  GLU8       -0.2718
     31  CB        51.3920  -26.6580  -28.1960 C.3     8  GLU8        0.0402
     32  CG        50.1590  -26.9890  -29.0280 C.3     8  GLU8        0.1161
     33  CD        50.3770  -26.8180  -30.5260 C.2     8  GLU8        0.3649
     34  OE1       49.4580  -27.1670  -31.2960 O.co2   8  GLU8       -0.2457
     35  OE2       51.4580  -26.3350  -30.9360 O.co2   8  GLU8       -0.2457
     36  N         52.6250  -25.4310  -25.2220 N.am    9  PHE9       -0.1962
     37  CA        53.8630  -25.1430  -24.4830 C.3     9  PHE9        0.1771
     38  C         53.8960  -25.8020  -23.1090 C.2     9  PHE9        0.2619
     39  O         53.0490  -25.5450  -22.2510 O.2     9  PHE9       -0.2715
     40  CB        54.0410  -23.6200  -24.3490 C.3     9  PHE9        0.0574
     41  CG        55.4430  -23.1890  -23.9700 C.ar    9  PHE9       -0.0200
     42  CD1       55.9210  -23.3620  -22.6710 C.ar    9  PHE9       -0.0042
     43  CD2       56.2840  -22.6220  -24.9240 C.ar    9  PHE9       -0.0042
     44  CE1       57.2260  -22.9620  -22.3270 C.ar    9  PHE9       -0.0003
     45  CE2       57.5810  -22.2180  -24.5920 C.ar    9  PHE9       -0.0003
     46  CZ        58.0540  -22.3930  -23.2880 C.ar    9  PHE9       -0.0000
     47  N         54.8850  -26.6590  -22.9110 N.am   10  ILE10      -0.1977
     48  CA        55.0600  -27.3760  -21.6580 C.3    10  ILE10       0.1596
     49  C         55.9340  -26.5800  -20.6850 C.2    10  ILE10       0.2287
     50  O         56.9830  -26.0630  -21.0650 O.2    10  ILE10      -0.2864
     51  CB        55.7120  -28.7470  -21.9230 C.3    10  ILE10       0.0276
     52  CG1       54.7870  -29.5850  -22.8120 C.3    10  ILE10       0.0022
     53  CG2       56.0290  -29.4420  -20.6070 C.3    10  ILE10       0.0022
     54  CD1       55.4980  -30.7030  -23.5570 C.3    10  ILE10       0.0001
     55  N         69.6880  -19.0280  -21.6910 N.3    42  PRO42      -0.2102
     56  CA        69.4810  -19.5590  -23.0410 C.3    42  PRO42       0.1504
     57  C         68.7970  -20.9280  -23.0620 C.2    42  PRO42       0.2576
     58  O         68.9450  -21.7190  -22.1330 O.2    42  PRO42      -0.2718
     59  CB        70.9020  -19.6200  -23.6070 C.3    42  PRO42       0.0282
     60  CG        71.6270  -18.5400  -22.8400 C.3    42  PRO42       0.0208
     61  CD        71.1160  -18.7510  -21.4510 C.3    42  PRO42       0.0893
     62  N         68.0310  -21.1840  -24.1210 N.am   43  GLY43      -0.1943
     63  CA        67.3640  -22.4690  -24.2870 C.3    43  GLY43       0.2014
     64  C         66.1190  -22.7180  -23.4540 C.2    43  GLY43       0.2639
     65  O         65.6480  -23.8600  -23.3820 O.2    43  GLY43      -0.2714
     66  N         65.5730  -21.6780  -22.8400 N.am   44  LEU44      -0.1963
     67  CA        64.3820  -21.8430  -22.0110 C.3    44  LEU44       0.1728
     68  C         63.0670  -21.5910  -22.7340 C.2    44  LEU44       0.2617
     69  O         62.0030  -21.8090  -22.1750 O.2    44  LEU44      -0.2715
     70  CB        64.4600  -20.9510  -20.7740 C.3    44  LEU44       0.0311
     71  CG        65.5220  -21.3550  -19.7490 C.3    44  LEU44       0.0022
     72  CD1       65.4360  -20.4000  -18.5640 C.3    44  LEU44       0.0001
     73  CD2       65.3180  -22.8020  -19.2910 C.3    44  LEU44       0.0001
     74  N         63.1440  -21.1260  -23.9730 N.am   45  GLY45      -0.1940
     75  CA        61.9230  -20.8950  -24.7270 C.3    45  GLY45       0.2014
     76  C         61.4870  -19.4590  -24.9720 C.2    45  GLY45       0.2639
     77  O         60.3370  -19.2250  -25.3420 O.2    45  GLY45      -0.2714
     78  N         62.3910  -18.5010  -24.7840 N.am   46  LYS46      -0.1963
     79  CA        62.0440  -17.1010  -25.0080 C.3    46  LYS46       0.1728
     80  C         61.6900  -16.8630  -26.4780 C.2    46  LYS46       0.2617
     81  O         60.6470  -16.2750  -26.7820 O.2    46  LYS46      -0.2715
     82  CB        63.2070  -16.1970  -24.5640 C.3    46  LYS46       0.0311
     83  CG        63.5580  -16.3570  -23.0730 C.3    46  LYS46       0.0038
     84  CD        64.6390  -15.3750  -22.6090 C.3    46  LYS46       0.0206
     85  CE        65.9830  -15.6120  -23.3010 C.3    46  LYS46       0.1093
     86  NZ        66.5760  -16.9370  -22.9580 N.3    46  LYS46      -0.1314
     87  N         62.5480  -17.3350  -27.3780 N.am   47  THR47      -0.1937
     88  CA        62.3270  -17.1760  -28.8140 C.3    47  THR47       0.2028
     89  C         61.0580  -17.9170  -29.2140 C.2    47  THR47       0.2642
     90  O         60.2580  -17.4290  -30.0210 O.2    47  THR47      -0.2714
     91  CB        63.5260  -17.7420  -29.6220 C.3    47  THR47       0.1808
     92  OG1       64.7220  -17.0320  -29.2700 O.3    47  THR47      -0.2208
     93  CG2       63.2870  -17.5790  -31.1130 C.3    47  THR47       0.0379
     94  N         60.8780  -19.0990  -28.6390 N.am   48  THR48      -0.1950
     95  CA        59.7090  -19.9190  -28.9180 C.3    48  THR48       0.1897
     96  C         58.4370  -19.1590  -28.5230 C.2    48  THR48       0.2313
     97  O         57.4680  -19.1140  -29.2950 O.2    48  THR48      -0.2863
     98  CB        59.8210  -21.2610  -28.1640 C.3    48  THR48       0.1794
     99  OG1       60.8630  -22.0480  -28.7560 O.3    48  THR48      -0.2208
    100  CG2       58.5100  -22.0240  -28.2010 C.3    48  THR48       0.0378
    101  N         66.0630  -10.1630  -30.1000 N.3    91  ASP91      -0.1239
    102  CA        66.8090  -11.0580  -29.2310 C.3    91  ASP91       0.1674
    103  C         68.0380  -10.2830  -28.7700 C.2    91  ASP91       0.2266
    104  O         68.5510   -9.4350  -29.5050 O.2    91  ASP91      -0.2867
    105  CB        67.2100  -12.3150  -30.0040 C.3    91  ASP91       0.1410
    106  CG        67.7830  -13.3940  -29.1070 C.2    91  ASP91       0.3668
    107  OD1       67.4380  -13.4110  -27.9070 O.co2  91  ASP91      -0.2456
    108  OD2       68.5680  -14.2310  -29.6070 O.co2  91  ASP91      -0.2456
    109  N         63.4020  -25.4540  -15.9160 N.3   150  TYR150     -0.1241
    110  CA        62.2810  -26.3800  -15.8820 C.3   150  TYR150      0.1605
    111  C         62.5250  -27.4170  -14.7960 C.2   150  TYR150      0.2264
    112  O         63.6660  -27.6690  -14.4280 O.2   150  TYR150     -0.2867
    113  CB        62.1300  -27.1410  -17.2020 C.3   150  TYR150      0.0534
    114  CG        61.7050  -26.3020  -18.3790 C.ar  150  TYR150     -0.0201
    115  CD1       62.6450  -25.5770  -19.1020 C.ar  150  TYR150     -0.0009
    116  CD2       60.3590  -26.2180  -18.7630 C.ar  150  TYR150     -0.0009
    117  CE1       62.2710  -24.7890  -20.1770 C.ar  150  TYR150      0.0417
    118  CE2       59.9710  -25.4310  -19.8380 C.ar  150  TYR150      0.0417
    119  CZ        60.9320  -24.7200  -20.5400 C.ar  150  TYR150      0.1957
    120  OH        60.5190  -23.9460  -21.5940 O.3   150  TYR150     -0.2866
    121  N         58.6990  -32.9000  -21.9780 N.3   158  ILE158     -0.1245
    122  CA        59.2520  -32.3420  -23.2090 C.3   158  ILE158      0.1561
    123  C         60.0090  -33.4190  -23.9880 C.2   158  ILE158      0.2260
    124  O         59.8920  -33.5140  -25.2150 O.2   158  ILE158     -0.2867
    125  CB        60.1920  -31.1470  -22.8750 C.3   158  ILE158      0.0252
    126  CG1       59.3580  -29.9930  -22.3040 C.3   158  ILE158      0.0019
    127  CG2       60.9400  -30.6960  -24.1180 C.3   158  ILE158      0.0019
    128  CD1       60.1620  -28.9290  -21.5760 C.3   158  ILE158      0.0001
    129  N         57.6320  -35.8180  -25.5830 N.3   161  ARG161     -0.1231
    130  CA        56.9990  -35.1750  -26.7280 C.3   161  ARG161      0.1694
    131  C         57.9470  -35.1810  -27.9260 C.2   161  ARG161      0.2591
    132  O         57.5460  -35.4770  -29.0500 O.2   161  ARG161     -0.2718
    133  CB        56.6130  -33.7390  -26.3840 C.3   161  ARG161      0.0321
    134  CG        55.9850  -32.9680  -27.5310 C.3   161  ARG161      0.0489
    135  CD        54.6330  -33.5470  -27.9170 C.3   161  ARG161      0.2205
    136  NE        53.9230  -32.6670  -28.8400 N.pl3 161  ARG161     -0.0865
    137  CZ        52.6270  -32.7660  -29.1180 C.cat 161  ARG161      0.5346
    138  NH1       52.0620  -31.9210  -29.9710 N.pl3 161  ARG161      0.1354
    139  NH2       51.8930  -33.7060  -28.5400 N.pl3 161  ARG161      0.1354
    140  N         59.2090  -34.8510  -27.6670 N.am  162  ALA162     -0.1980
    141  CA        60.2300  -34.8220  -28.7130 C.3   162  ALA162      0.1597
    142  C         60.3930  -36.2020  -29.3510 C.2   162  ALA162      0.2287
    143  O         60.3960  -36.3290  -30.5800 O.2   162  ALA162     -0.2864
    144  CB        61.5610  -34.3480  -28.1260 C.3   162  ALA162      0.0319
    145  N         57.6320  -37.1730  -31.7370 N.3   165  LEU165     -0.1245
    146  CA        57.7490  -36.5140  -33.0320 C.3   165  LEU165      0.1561
    147  C         58.8970  -37.0680  -33.8710 C.2   165  LEU165      0.2260
    148  O         58.8800  -36.9510  -35.0940 O.2   165  LEU165     -0.2867
    149  CB        57.9150  -35.0050  -32.8420 C.3   165  LEU165      0.0270
    150  CG        56.7190  -34.2920  -32.2050 C.3   165  LEU165      0.0019
    151  CD1       57.1030  -32.8590  -31.8830 C.3   165  LEU165      0.0001
    152  CD2       55.5220  -34.3300  -33.1470 C.3   165  LEU165      0.0001
    153  N         65.1460  -26.8370  -21.4760 N.3   186  GLY186     -0.1210
    154  CA        64.4260  -27.5330  -22.5280 C.3   186  GLY186      0.1956
    155  C         65.2400  -27.8150  -23.7850 C.2   186  GLY186      0.2611
    156  O         65.1910  -28.9200  -24.3210 O.2   186  GLY186     -0.2717
    157  N         65.9750  -26.8270  -24.2790 N.am  187  ARG187     -0.1979
    158  CA        66.7720  -27.0440  -25.4810 C.3   187  ARG187      0.1597
    159  C         67.7440  -28.2060  -25.2870 C.2   187  ARG187      0.2287
    160  O         67.8860  -29.0490  -26.1750 O.2   187  ARG187     -0.2864
    161  CB        67.5230  -25.7620  -25.8450 C.3   187  ARG187      0.0334
    162  CG        68.5690  -25.9650  -26.9140 C.3   187  ARG187      0.0492
    163  CD        69.3630  -24.6960  -27.1160 C.3   187  ARG187      0.2205
    164  NE        68.5410  -23.6310  -27.6810 N.pl3 187  ARG187     -0.0865
    165  CZ        68.9100  -22.3560  -27.7150 C.cat 187  ARG187      0.5346
    166  NH1       70.0860  -21.9960  -27.2110 N.pl3 187  ARG187      0.1354
    167  NH2       68.1100  -21.4410  -28.2510 N.pl3 187  ARG187      0.1354
    168  N         65.9330  -31.6350  -25.3660 N.3   190  ILE190     -0.1231
    169  CA        65.5830  -32.0350  -26.7330 C.3   190  ILE190      0.1692
    170  C         66.8060  -32.5220  -27.5220 C.2   190  ILE190      0.2591
    171  O         66.7490  -33.5470  -28.2010 O.2   190  ILE190     -0.2718
    172  CB        64.9100  -30.8630  -27.4790 C.3   190  ILE190      0.0266
    173  CG1       63.5780  -30.5330  -26.7990 C.3   190  ILE190      0.0019
    174  CG2       64.7050  -31.2210  -28.9590 C.3   190  ILE190      0.0020
    175  CD1       63.0020  -29.1780  -27.1680 C.3   190  ILE190      0.0001
    176  N         67.9150  -31.7940  -27.4260 N.am  191  ARG191     -0.1980
    177  CA        69.1220  -32.1910  -28.1400 C.3   191  ARG191      0.1597
    178  C         69.6980  -33.4890  -27.6180 C.2   191  ARG191      0.2287
    179  O         70.2230  -34.2820  -28.4010 O.2   191  ARG191     -0.2864
    180  CB        70.1720  -31.0790  -28.0870 C.3   191  ARG191      0.0334
    181  CG        69.8840  -29.9420  -29.0450 C.3   191  ARG191      0.0492
    182  CD        70.9250  -28.8460  -28.8880 C.3   191  ARG191      0.2205
    183  NE        70.6700  -27.7440  -29.8040 N.pl3 191  ARG191     -0.0865
    184  CZ        71.3410  -26.5980  -29.8100 C.cat 191  ARG191      0.5346
    185  NH1       72.3210  -26.3880  -28.9420 N.pl3 191  ARG191      0.1354
    186  NH2       71.0270  -25.6590  -30.6880 N.pl3 191  ARG191      0.1354
@<TRIPOS>BOND
     1   148   147    2
     2     1     2    1
     3   147   146    1
     4   152   150    1
     5   146   149    1
     6   146   145    1
     7    18    17    1
     8     6     8    1
     9     6     7    1
    10     6     5    1
    11     2     5    1
    12     2     3    1
    13   149   150    1
    14    12    11    2
    15     9     3   am
    16     9    10    1
    17   150   151    1
    18    15    16    1
    19    15    14    1
    20    17    16    2
    21    17    19    1
    22    13    14    1
    23    13    10    1
    24     3     4    2
    25    11    10    1
    26    11    20   am
    27    23    22    2
    28    34    33   ar
    29    93    91    1
    30    22    21    1
    31    35    33   ar
    32   186   184    1
    33   143   142    2
    34    33    32    1
    35    20    21    1
    36    20    26    1
    37    21    24    1
    38   101   102    1
    39    90    89    2
    40   105   102    1
    41   105   106    1
    42   138   137    1
    43   184   183    2
    44   184   185    1
    45   183   182    1
    46    91    92    1
    47    91    88    1
    48   108   106   ar
    49   104   103    2
    50   142   141    1
    51    97    96    2
    52   102   103    1
    53    89    88    1
    54    89    94   am
    55   137   136    2
    56   137   139    1
    57   106   107   ar
    58   132   131    2
    59   181   182    1
    60   181   180    1
    61    32    31    1
    62    26    25    1
    63   174   172    1
    64    95    94    1
    65    95    96    1
    66    95    98    1
    67   136   135    1
    68    88    87    1
    69    99    98    1
    70   141   144    1
    71   141   140    1
    72    24    25    1
    73   179   178    2
    74   167   165    1
    75   100    98    1
    76   171   170    2
    77    31    28    1
    78   177   180    1
    79   177   178    1
    80   177   176    1
    81   131   140   am
    82   131   130    1
    83   135   134    1
    84   165   164    2
    85   165   166    1
    86   164   163    1
    87   134   133    1
    88   170   176   am
    89   170   169    1
    90   172   173    1
    91   172   169    1
    92    87    80   am
    93   175   173    1
    94   163   162    1
    95   162   161    1
    96    81    80    2
    97   169   168    1
    98   130   133    1
    99   130   129    1
   100    28    27    1
   101    28    29    1
   102    80    79    1
   103   160   159    2
   104    30    29    2
   105    29    36   am
   106   161   158    1
   107   158   159    1
   108   158   157    1
   109    77    76    2
   110    36    37    1
   111   124   123    2
   112    79    78    1
   113    79    82    1
   114    76    78   am
   115    76    75    1
   116    43    45   ar
   117    43    41   ar
   118    75    74    1
   119    45    46   ar
   120    82    83    1
   121    37    40    1
   122    37    38    1
   123    40    41    1
   124   156   155    2
   125    63    62    1
   126    63    64    1
   127   157   155   am
   128    62    57   am
   129   127   125    1
   130   123   122    1
   131    74    68   am
   132    41    42   ar
   133   155   154    1
   134    59    56    1
   135    59    60    1
   136    54    52    1
   137    64    65    2
   138    64    66   am
   139    85    86    1
   140    85    84    1
   141    46    44   ar
   142   122   125    1
   143   122   121    1
   144    38    47   am
   145    38    39    2
   146    83    84    1
   147    57    56    1
   148    57    58    2
   149    56    55    1
   150    47    48    1
   151   125   126    1
   152    66    67    1
   153    60    61    1
   154    52    51    1
   155    68    69    2
   156    68    67    1
   157    42    44   ar
   158   154   153    1
   159   126   128    1
   160    67    70    1
   161    51    48    1
   162    51    53    1
   163    55    61    1
   164    48    49    1
   165   120   119    1
   166    50    49    2
   167    70    71    1
   168   119   117   ar
   169   119   118   ar
   170   117   115   ar
   171   118   116   ar
   172    71    73    1
   173    71    72    1
   174   115   114   ar
   175   116   114   ar
   176   114   113    1
   177   113   110    1
   178   109   110    1
   179   110   111    1
   180   111   112    2
