@<TRIPOS>MOLECULE
tmp/1j7lA00.pdb
 169 158 0 0 0
SMALL
GASTEIGER

@<TRIPOS>ATOM
      1  N         24.6430    7.5940   61.7140 N.3    21  ASP21      -0.1239
      2  CA        25.9080    6.9270   62.0120 C.3    21  ASP21       0.1674
      3  C         25.9750    5.6680   61.1510 C.2    21  ASP21       0.2266
      4  O         25.0190    4.8910   61.0960 O.2    21  ASP21      -0.2867
      5  CB        25.9790    6.5650   63.4950 C.3    21  ASP21       0.1410
      6  CG        27.2410    5.8050   63.8530 C.2    21  ASP21       0.3668
      7  OD1       28.3380    6.4100   63.8400 O.co2  21  ASP21      -0.2456
      8  OD2       27.1270    4.6000   64.1560 O.co2  21  ASP21      -0.2456
      9  N         28.0990    3.0030   61.4780 N.3    23  GLU23      -0.1231
     10  CA        28.4940    1.7680   62.1550 C.3    23  GLU23       0.1699
     11  C         27.3980    0.6960   62.2000 C.2    23  GLU23       0.2593
     12  O         27.6050   -0.4250   61.7250 O.2    23  GLU23      -0.2718
     13  CB        29.0140    2.0660   63.5630 C.3    23  GLU23       0.0402
     14  CG        29.6220    0.8580   64.2580 C.3    23  GLU23       0.1161
     15  CD        30.3500    1.2200   65.5400 C.2    23  GLU23       0.3649
     16  OE1       31.1960    2.1390   65.5080 O.co2  23  GLU23      -0.2457
     17  OE2       30.0860    0.5780   66.5780 O.co2  23  GLU23      -0.2457
     18  N         26.2390    1.0460   62.7570 N.am   24  GLY24      -0.1942
     19  CA        25.1310    0.1070   62.8490 C.3    24  GLY24       0.2014
     20  C         25.5140   -1.2340   63.4540 C.2    24  GLY24       0.2639
     21  O         25.0960   -2.2830   62.9570 O.2    24  GLY24      -0.2714
     22  N         26.3140   -1.2010   64.5180 N.am   25  MET25      -0.1963
     23  CA        26.7630   -2.4210   65.1860 C.3    25  MET25       0.1736
     24  C         25.6850   -3.0200   66.0930 C.2    25  MET25       0.2617
     25  O         25.8280   -4.1390   66.5830 O.2    25  MET25      -0.2715
     26  CB        28.0260   -2.1430   66.0100 C.3    25  MET25       0.0427
     27  CG        29.1640   -3.1330   65.7810 C.3    25  MET25       0.0599
     28  SD        30.1370   -2.8080   64.2760 S.3    25  MET25      -0.1393
     29  CE        29.3250   -3.8830   63.0840 C.3    25  MET25       0.0692
     30  N         24.6190   -2.2650   66.3310 N.am   26  SER26      -0.1950
     31  CA        23.5280   -2.7320   67.1740 C.3    26  SER26       0.1924
     32  C         22.2000   -2.4430   66.4770 C.2    26  SER26       0.2314
     33  O         22.1670   -1.7550   65.4540 O.2    26  SER26      -0.2863
     34  CB        23.5810   -2.0230   68.5350 C.3    26  SER26       0.2116
     35  OG        22.9150   -0.7680   68.5120 O.3    26  SER26      -0.2180
     36  N         20.0270   -0.5680   67.3260 N.3    28  ALA28      -0.1245
     37  CA        19.6670    0.8260   67.5560 C.3    28  ALA28       0.1562
     38  C         20.0050    1.6670   66.3360 C.2    28  ALA28       0.2260
     39  O         20.9080    1.3300   65.5700 O.2    28  ALA28      -0.2867
     40  CB        20.4050    1.3710   68.7700 C.3    28  ALA28       0.0290
     41  N         21.3030    5.2320   65.1910 N.3    30  VAL30      -0.1245
     42  CA        22.0620    6.3300   65.7640 C.3    30  VAL30       0.1561
     43  C         22.1930    7.4650   64.7600 C.2    30  VAL30       0.2260
     44  O         22.5440    7.2480   63.5990 O.2    30  VAL30      -0.2867
     45  CB        23.4650    5.8730   66.2300 C.3    30  VAL30       0.0252
     46  CG1       24.2510    7.0590   66.7800 C.3    30  VAL30       0.0019
     47  CG2       23.3370    4.8050   67.3030 C.3    30  VAL30       0.0019
     48  N         23.3500   13.8920   69.5810 N.3    41  TYR41      -0.1241
     49  CA        23.1750   12.5350   69.1150 C.3    41  TYR41       0.1605
     50  C         21.8260   12.0080   69.5600 C.2    41  TYR41       0.2264
     51  O         21.3660   12.2870   70.6660 O.2    41  TYR41      -0.2867
     52  CB        24.3150   11.6320   69.5860 C.3    41  TYR41       0.0534
     53  CG        25.5350   11.7010   68.6960 C.ar   41  TYR41      -0.0201
     54  CD1       26.4890   12.7070   68.8540 C.ar   41  TYR41      -0.0009
     55  CD2       25.7450   10.7460   67.7020 C.ar   41  TYR41      -0.0009
     56  CE1       27.6250   12.7540   68.0400 C.ar   41  TYR41       0.0417
     57  CE2       26.8710   10.7820   66.8900 C.ar   41  TYR41       0.0417
     58  CZ        27.8080   11.7810   67.0610 C.ar   41  TYR41       0.1957
     59  OH        28.9410   11.7900   66.2720 O.3    41  TYR41      -0.2866
     60  N         19.7330    8.4990   69.7070 N.3    43  LYS43      -0.1245
     61  CA        19.8060    7.0500   69.6310 C.3    43  LYS43       0.1561
     62  C         18.3920    6.5310   69.8360 C.2    43  LYS43       0.2260
     63  O         17.7100    6.9300   70.7790 O.2    43  LYS43      -0.2867
     64  CB        20.7450    6.5060   70.7040 C.3    43  LYS43       0.0271
     65  CG        21.1120    5.0510   70.4870 C.3    43  LYS43       0.0035
     66  CD        22.1680    4.5810   71.4740 C.3    43  LYS43       0.0206
     67  CE        22.7570    3.2490   71.0220 C.3    43  LYS43       0.1093
     68  NZ        23.8150    2.7820   71.9470 N.3    43  LYS43      -0.1314
     69  N         19.7350    3.0740   78.6290 N.3    59  GLU59      -0.1196
     70  CA        20.8410    3.5650   78.3810 C.3    59  GLU59       0.1783
     71  C         20.6860    5.2700   79.2040 C.2    59  GLU59       0.2306
     72  O         21.5640    5.7790   79.8940 O.2    59  GLU59      -0.2863
     73  CB        21.1310    3.6000   76.9000 C.2    59  GLU59       0.0071
     74  CG        22.2170    4.2090   76.4500 C.2    59  GLU59       0.0834
     75  CD        22.6440    3.8480   74.8790 C.2    59  GLU59       0.3877
     76  OE1       21.9680    3.4230   74.0270 O.co2  59  GLU59      -0.2406
     77  OE2       23.6470    3.9950   74.5160 O.co2  59  GLU59      -0.2406
     78  N         27.5970   11.5970   78.2870 N.3    73  PRO73      -0.2116
     79  CA        26.8920   12.7170   77.6610 C.3    73  PRO73       0.1372
     80  C         25.6910   13.1610   78.4910 C.2    73  PRO73       0.2244
     81  O         25.2150   12.4330   79.3670 O.2    73  PRO73      -0.2868
     82  CB        26.4710   12.1470   76.3040 C.3    73  PRO73       0.0268
     83  CG        26.4110   10.6840   76.5260 C.3    73  PRO73       0.0207
     84  CD        27.5990   10.4180   77.4020 C.3    73  PRO73       0.0892
     85  N         20.9420   13.2050   73.1820 N.3    89  MET89      -0.1230
     86  CA        22.0290   13.4780   74.1110 C.3    89  MET89       0.1702
     87  C         23.0640   14.4190   73.5060 C.2    89  MET89       0.2593
     88  O         23.0880   14.6460   72.2990 O.2    89  MET89      -0.2718
     89  CB        22.7170   12.1620   74.4950 C.3    89  MET89       0.0401
     90  CG        23.5580   11.5550   73.3680 C.3    89  MET89       0.0596
     91  SD        23.9280    9.7920   73.5660 S.3    89  MET89      -0.1393
     92  CE        22.6130    9.0860   72.6000 C.3    89  MET89       0.0692
     93  N         23.9190   14.9660   74.3610 N.am   90  SER90      -0.1938
     94  CA        24.9780   15.8500   73.9070 C.3    90  SER90       0.2055
     95  C         26.0860   14.9880   73.3090 C.2    90  SER90       0.2643
     96  O         26.1060   13.7620   73.4890 O.2    90  SER90      -0.2714
     97  CB        25.5340   16.6480   75.0850 C.3    90  SER90       0.2130
     98  OG        26.0820   15.7930   76.0740 O.3    90  SER90      -0.2179
     99  N         26.9900   15.6300   72.5800 N.am   91  GLU91      -0.1963
    100  CA        28.1130   14.9410   71.9720 C.3    91  GLU91       0.1733
    101  C         29.1520   14.6680   73.0540 C.2    91  GLU91       0.2616
    102  O         29.4350   15.5290   73.8810 O.2    91  GLU91      -0.2715
    103  CB        28.7230   15.8000   70.8610 C.3    91  GLU91       0.0429
    104  CG        29.8720   15.1360   70.1210 C.3    91  GLU91       0.1163
    105  CD        30.3210   15.9300   68.9100 C.2    91  GLU91       0.3649
    106  OE1       30.7730   17.0810   69.0820 O.co2  91  GLU91      -0.2457
    107  OE2       30.2210   15.4010   67.7820 O.co2  91  GLU91      -0.2457
    108  N         29.6910   13.4540   73.0690 N.am   92  ALA92      -0.1977
    109  CA        30.7020   13.0920   74.0540 C.3    92  ALA92       0.1597
    110  C         31.9220   14.0050   73.9100 C.2    92  ALA92       0.2287
    111  O         32.2460   14.4590   72.8100 O.2    92  ALA92      -0.2864
    112  CB        31.1050   11.6450   73.8790 C.3    92  ALA92       0.0319
    113  N         37.1430    9.9580   69.9740 N.3    96  LEU96      -0.1245
    114  CA        36.7760    8.5470   69.9860 C.3    96  LEU96       0.1561
    115  C         38.0850    7.7520   70.0060 C.2    96  LEU96       0.2260
    116  O         39.0090    8.0600   69.2470 O.2    96  LEU96      -0.2867
    117  CB        35.9820    8.2290   68.7170 C.3    96  LEU96       0.0270
    118  CG        35.2580    6.8920   68.5780 C.3    96  LEU96       0.0019
    119  CD1       34.2070    6.7610   69.6560 C.3    96  LEU96       0.0001
    120  CD2       34.6120    6.8220   67.1970 C.3    96  LEU96       0.0001
    121  N         30.0590   -2.9360   77.3900 N.3   189  ASP189     -0.1239
    122  CA        30.5860   -3.0250   76.0390 C.3   189  ASP189      0.1674
    123  C         31.7610   -2.0610   75.9610 C.2   189  ASP189      0.2266
    124  O         31.7160   -1.0480   75.2690 O.2   189  ASP189     -0.2867
    125  CB        29.5150   -2.6770   74.9960 C.3   189  ASP189      0.1410
    126  CG        30.0030   -2.8940   73.5700 C.2   189  ASP189      0.3668
    127  OD1       30.9740   -3.6600   73.3930 O.co2 189  ASP189     -0.2456
    128  OD2       29.4330   -2.3030   72.6280 O.co2 189  ASP189     -0.2456
    129  N         35.0520    2.0570   70.3790 N.3   193  SER193     -0.1202
    130  CA        34.0540    2.8570   69.6760 C.3   193  SER193      0.2020
    131  C         33.0400    3.4450   70.6630 C.2   193  SER193      0.2618
    132  O         32.1360    4.1830   70.2650 O.2   193  SER193     -0.2717
    133  CB        33.3200    1.9990   68.6440 C.3   193  SER193      0.2103
    134  OG        32.6090    0.9430   69.2800 O.3   193  SER193     -0.2182
    135  N         33.1790    3.0940   71.9410 N.am  194  ASN194     -0.1974
    136  CA        32.2700    3.5820   72.9860 C.3   194  ASN194      0.1688
    137  C         32.9990    4.3930   74.0440 C.2   194  ASN194      0.2292
    138  O         32.4060    4.8000   75.0440 O.2   194  ASN194     -0.2864
    139  CB        31.5590    2.4120   73.6760 C.3   194  ASN194      0.1181
    140  CG        30.7240    1.5800   72.7180 C.2   194  ASN194      0.2629
    141  OD1       30.2140    2.0820   71.7180 O.2   194  ASN194     -0.2716
    142  ND2       30.5640    0.3020   73.0350 N.am  194  ASN194     -0.0877
    143  N         35.8550    7.6560   74.8030 N.3   196  PHE196     -0.1241
    144  CA        36.4720    8.8690   74.2790 C.3   196  PHE196      0.1605
    145  C         37.6720    9.2620   75.1260 C.2   196  PHE196      0.2264
    146  O         37.6640    9.0760   76.3400 O.2   196  PHE196     -0.2867
    147  CB        35.4540   10.0150   74.2470 C.3   196  PHE196      0.0534
    148  CG        34.3370    9.8050   73.2640 C.ar  196  PHE196     -0.0203
    149  CD1       33.3010    8.9200   73.5470 C.ar  196  PHE196     -0.0042
    150  CD2       34.3340   10.4710   72.0440 C.ar  196  PHE196     -0.0042
    151  CE1       32.2790    8.6990   72.6290 C.ar  196  PHE196     -0.0003
    152  CE2       33.3150   10.2560   71.1180 C.ar  196  PHE196     -0.0003
    153  CZ        32.2840    9.3660   71.4120 C.ar  196  PHE196     -0.0000
    154  N         29.9080    6.0370   76.2500 N.3   206  ILE206     -0.1231
    155  CA        28.5940    5.9900   75.6200 C.3   206  ILE206      0.1692
    156  C         28.2180    4.5190   75.4520 C.2   206  ILE206      0.2592
    157  O         29.0020    3.6300   75.8120 O.2   206  ILE206     -0.2718
    158  CB        28.5880    6.6560   74.2310 C.3   206  ILE206      0.0266
    159  CG1       29.6150    5.9830   73.3180 C.3   206  ILE206      0.0019
    160  CG2       28.8400    8.1500   74.3640 C.3   206  ILE206      0.0020
    161  CD1       29.6290    6.5320   71.9040 C.3   206  ILE206      0.0001
    162  N         27.0320    4.2710   74.8990 N.am  207  ASP207     -0.1974
    163  CA        26.5400    2.9140   74.6760 C.3   207  ASP207      0.1709
    164  C         26.4910    2.2550   76.0550 C.2   207  ASP207      0.2293
    165  O         27.2540    1.3390   76.3490 O.2   207  ASP207     -0.2864
    166  CB        27.5050    2.1740   73.7410 C.3   207  ASP207      0.1436
    167  CG        26.8410    1.0650   72.9650 C.2   207  ASP207      0.3671
    168  OD1       25.7380    0.6210   73.3440 O.co2 207  ASP207     -0.2456
    169  OD2       27.4390    0.6280   71.9700 O.co2 207  ASP207     -0.2456
@<TRIPOS>BOND
     1     4     3    2
     2     3     2    1
     3     9    10    1
     4     1     2    1
     5    12    11    2
     6     2     5    1
     7    10    11    1
     8    10    13    1
     9    11    18   am
    10    18    19    1
    11    19    20    1
    12    21    20    2
    13    29    28    1
    14    20    22   am
    15     5     6    1
    16    13    14    1
    17    44    43    2
    18     7     6   ar
    19     6     8   ar
    20    14    15    1
    21    28    27    1
    22    22    23    1
    23    43    42    1
    24    23    26    1
    25    23    24    1
    26    41    42    1
    27    33    32    2
    28    16    15   ar
    29    15    17   ar
    30    39    38    2
    31    42    45    1
    32    27    26    1
    33    24    30   am
    34    24    25    2
    35    45    46    1
    36    45    47    1
    37    59    58    1
    38    30    31    1
    39    38    37    1
    40    32    31    1
    41    57    58   ar
    42    57    55   ar
    43    58    56   ar
    44    31    34    1
    45   120   118    1
    46    36    37    1
    47    37    40    1
    48    55    53   ar
    49   107   105   ar
    50    56    54   ar
    51    35    34    1
    52   118   117    1
    53   118   119    1
    54   133   134    1
    55   133   130    1
    56    53    54   ar
    57    53    52    1
    58   117   114    1
    59   105   106   ar
    60   105   104    1
    61    49    50    1
    62    49    48    1
    63    49    52    1
    64   116   115    2
    65    50    51    2
    66    61    60    1
    67    61    62    1
    68    61    64    1
    69   130   129    1
    70   130   131    1
    71    62    63    2
    72   113   114    1
    73   114   115    1
    74   104   103    1
    75   132   131    2
    76    65    64    1
    77    65    66    1
    78   131   135   am
    79   103   100    1
    80    67    66    1
    81    67    68    1
    82   152   153   ar
    83   152   150   ar
    84   153   151   ar
    85   141   140    2
    86   161   159    1
    87   135   136    1
    88   169   167   ar
    89   100    99    1
    90   100   101    1
    91   150   148   ar
    92    88    87    2
    93    99    95   am
    94    92    91    1
    95   128   126   ar
    96   151   149   ar
    97   140   142   am
    98   140   139    1
    99   111   110    2
   100   167   168   ar
   101   167   166    1
   102   136   139    1
   103   136   137    1
   104   101   108   am
   105   101   102    2
   106   108   109    1
   107    85    86    1
   108   148   149   ar
   109   148   147    1
   110    95    96    2
   111    95    94    1
   112   159   158    1
   113    90    91    1
   114    90    89    1
   115   127   126   ar
   116    87    86    1
   117    87    93   am
   118   126   125    1
   119   166   163    1
   120   112   109    1
   121    94    93    1
   122    94    97    1
   123   110   109    1
   124    76    75   ar
   125   137   138    2
   126    86    89    1
   127   158   160    1
   128   158   155    1
   129   147   144    1
   130   144   143    1
   131   144   145    1
   132    77    75   ar
   133   163   162    1
   134   163   164    1
   135    75    74    1
   136   162   156   am
   137   125   122    1
   138    97    98    1
   139   145   146    2
   140   124   123    2
   141   156   155    1
   142   156   157    2
   143   155   154    1
   144   123   122    1
   145   122   121    1
   146   164   165    2
   147    82    83    1
   148    82    79    1
   149    74    73    2
   150    83    84    1
   151    73    70    1
   152    84    78    1
   153    79    78    1
   154    79    80    1
   155    70    69    1
   156    70    71    1
   157    80    81    2
   158    71    72    2
