@<TRIPOS>MOLECULE
tmp/1j7uA00.pdb
 180 168 0 0 0
SMALL
GASTEIGER

@<TRIPOS>ATOM
      1  N         24.5340    7.1990   62.2120 N.3    21  ASP21      -0.1239
      2  CA        25.8020    6.5510   62.5480 C.3    21  ASP21       0.1674
      3  C         26.0940    5.3640   61.6230 C.2    21  ASP21       0.2266
      4  O         25.1980    4.5790   61.3020 O.2    21  ASP21      -0.2867
      5  CB        25.7700    6.0900   64.0090 C.3    21  ASP21       0.1410
      6  CG        27.0510    5.4080   64.4390 C.2    21  ASP21       0.3668
      7  OD1       28.1320    6.0310   64.3400 O.co2  21  ASP21      -0.2456
      8  OD2       26.9700    4.2440   64.8840 O.co2  21  ASP21      -0.2456
      9  N         28.4040    2.7880   62.2400 N.3    23  GLU23      -0.1231
     10  CA        28.6800    1.5430   62.9660 C.3    23  GLU23       0.1699
     11  C         27.4530    0.6280   63.0250 C.2    23  GLU23       0.2593
     12  O         27.4810   -0.4880   62.5040 O.2    23  GLU23      -0.2718
     13  CB        29.1740    1.8550   64.3820 C.3    23  GLU23       0.0402
     14  CG        30.4290    1.0900   64.7960 C.3    23  GLU23       0.1161
     15  CD        31.6980    1.5690   64.1000 C.2    23  GLU23       0.3649
     16  OE1       31.6670    2.6140   63.4110 O.co2  23  GLU23      -0.2457
     17  OE2       32.7390    0.8970   64.2540 O.co2  23  GLU23      -0.2457
     18  N         26.3990    1.1030   63.6920 N.am   24  GLY24      -0.1942
     19  CA        25.1480    0.3640   63.8110 C.3    24  GLY24       0.2014
     20  C         25.1870   -1.1300   64.0920 C.2    24  GLY24       0.2639
     21  O         24.2980   -1.8640   63.6490 O.2    24  GLY24      -0.2714
     22  N         26.1880   -1.5780   64.8480 N.am   25  MET25      -0.1963
     23  CA        26.3370   -2.9950   65.1820 C.3    25  MET25       0.1736
     24  C         25.4370   -3.4520   66.3330 C.2    25  MET25       0.2617
     25  O         25.7290   -4.4400   67.0130 O.2    25  MET25      -0.2715
     26  CB        27.8020   -3.3210   65.4990 C.3    25  MET25       0.0427
     27  CG        28.7510   -3.1520   64.3230 C.3    25  MET25       0.0599
     28  SD        30.3890   -3.8350   64.6480 S.3    25  MET25      -0.1393
     29  CE        31.2140   -2.4290   65.3850 C.3    25  MET25       0.0692
     30  N         24.3360   -2.7390   66.5350 N.am   26  SER26      -0.1950
     31  CA        23.3920   -3.0690   67.5910 C.3    26  SER26       0.1924
     32  C         21.9770   -2.7560   67.0990 C.2    26  SER26       0.2314
     33  O         21.7970   -2.2600   65.9850 O.2    26  SER26      -0.2863
     34  CB        23.7130   -2.2620   68.8630 C.3    26  SER26       0.2116
     35  OG        23.0630   -0.9990   68.8660 O.3    26  SER26      -0.2180
     36  N         20.0000   -0.5890   68.3370 N.3    28  ALA28      -0.1245
     37  CA        19.7890    0.8470   68.4970 C.3    28  ALA28       0.1562
     38  C         20.1820    1.7040   67.3060 C.2    28  ALA28       0.2260
     39  O         21.2020    1.4700   66.6620 O.2    28  ALA28      -0.2867
     40  CB        20.5110    1.3490   69.7510 C.3    28  ALA28       0.0290
     41  N         21.4790    5.1840   66.0460 N.3    30  VAL30      -0.1245
     42  CA        22.2590    6.2970   66.5770 C.3    30  VAL30       0.1561
     43  C         22.3490    7.3990   65.5350 C.2    30  VAL30       0.2260
     44  O         22.7000    7.1500   64.3850 O.2    30  VAL30      -0.2867
     45  CB        23.6890    5.8670   66.9710 C.3    30  VAL30       0.0252
     46  CG1       24.4690    7.0650   67.4950 C.3    30  VAL30       0.0019
     47  CG2       23.6420    4.7660   68.0220 C.3    30  VAL30       0.0019
     48  N         23.4690   13.9970   70.1550 N.3    41  TYR41      -0.1241
     49  CA        23.3020   12.6320   69.6940 C.3    41  TYR41       0.1605
     50  C         21.9530   12.1070   70.1450 C.2    41  TYR41       0.2264
     51  O         21.4790   12.4380   71.2240 O.2    41  TYR41      -0.2867
     52  CB        24.4280   11.7370   70.2120 C.3    41  TYR41       0.0534
     53  CG        25.6870   11.7950   69.3800 C.ar   41  TYR41      -0.0201
     54  CD1       26.6820   12.7360   69.6410 C.ar   41  TYR41      -0.0009
     55  CD2       25.8970   10.8830   68.3410 C.ar   41  TYR41      -0.0009
     56  CE1       27.8600   12.7670   68.8890 C.ar   41  TYR41       0.0417
     57  CE2       27.0680   10.9040   67.5880 C.ar   41  TYR41       0.0417
     58  CZ        28.0450   11.8440   67.8680 C.ar   41  TYR41       0.1957
     59  OH        29.2180   11.8310   67.1430 O.3    41  TYR41      -0.2866
     60  N         19.8950    8.5100   70.4070 N.3    43  LYS43      -0.1245
     61  CA        19.9570    7.0590   70.3490 C.3    43  LYS43       0.1561
     62  C         18.5560    6.5890   70.6740 C.2    43  LYS43       0.2260
     63  O         17.9040    7.1390   71.5710 O.2    43  LYS43      -0.2867
     64  CB        20.9470    6.5420   71.3840 C.3    43  LYS43       0.0271
     65  CG        21.3960    5.1180   71.1770 C.3    43  LYS43       0.0035
     66  CD        22.4300    4.7410   72.2260 C.3    43  LYS43       0.0206
     67  CE        22.9710    3.3420   72.0110 C.3    43  LYS43       0.1093
     68  NZ        24.0700    3.0550   72.9750 N.3    43  LYS43      -0.1314
     69  N         19.5680    2.8790   79.6130 N.3    59  GLU59      -0.1245
     70  CA        20.8070    3.6060   79.3930 C.3    59  GLU59       0.1567
     71  C         20.7020    5.0320   79.9610 C.2    59  GLU59       0.2260
     72  O         21.6770    5.5740   80.4880 O.2    59  GLU59      -0.2867
     73  CB        21.1080    3.6310   77.8960 C.3    59  GLU59       0.0388
     74  CG        22.3970    4.3290   77.4960 C.3    59  GLU59       0.1160
     75  CD        22.7550    4.0750   76.0530 C.2    59  GLU59       0.3649
     76  OE1       21.8510    3.7680   75.2560 O.co2  59  GLU59      -0.2457
     77  OE2       23.9470    4.1590   75.7120 O.co2  59  GLU59      -0.2457
     78  N         27.7990   11.7450   79.0410 N.3    73  PRO73      -0.2116
     79  CA        27.0440   12.7650   78.3100 C.3    73  PRO73       0.1372
     80  C         25.8920   13.2560   79.1680 C.2    73  PRO73       0.2244
     81  O         25.4220   12.5500   80.0600 O.2    73  PRO73      -0.2868
     82  CB        26.5060   11.9930   77.1090 C.3    73  PRO73       0.0268
     83  CG        27.4990   10.9030   76.9300 C.3    73  PRO73       0.0207
     84  CD        27.7420   10.4590   78.3280 C.3    73  PRO73       0.0892
     85  N         21.1050   13.3940   73.8130 N.3    89  MET89      -0.1230
     86  CA        22.2090   13.6810   74.7090 C.3    89  MET89       0.1702
     87  C         23.2550   14.6110   74.1090 C.2    89  MET89       0.2593
     88  O         23.2510   14.8990   72.9110 O.2    89  MET89      -0.2718
     89  CB        22.8720   12.3590   75.1390 C.3    89  MET89       0.0401
     90  CG        23.5490   11.5930   73.9850 C.3    89  MET89       0.0596
     91  SD        24.2070    9.9300   74.3770 S.3    89  MET89      -0.1393
     92  CE        23.0630    8.9230   73.4580 C.3    89  MET89       0.0692
     93  N         24.1550   15.0730   74.9670 N.am   90  SER90      -0.1938
     94  CA        25.2360   15.9510   74.5580 C.3    90  SER90       0.2055
     95  C         26.3950   15.1180   74.0300 C.2    90  SER90       0.2643
     96  O         26.4990   13.9220   74.3120 O.2    90  SER90      -0.2714
     97  CB        25.7060   16.7930   75.7450 C.3    90  SER90       0.2130
     98  OG        26.1170   15.9770   76.8250 O.3    90  SER90      -0.2179
     99  N         27.2590   15.7580   73.2550 N.am   91  GLU91      -0.1963
    100  CA        28.4200   15.0910   72.6930 C.3    91  GLU91       0.1733
    101  C         29.4600   14.8620   73.7890 C.2    91  GLU91       0.2616
    102  O         29.7160   15.7420   74.6090 O.2    91  GLU91      -0.2715
    103  CB        29.0170   15.9420   71.5720 C.3    91  GLU91       0.0429
    104  CG        30.1620   15.2770   70.8300 C.3    91  GLU91       0.1163
    105  CD        30.5620   16.0410   69.5890 C.2    91  GLU91       0.3649
    106  OE1       30.8610   17.2470   69.7060 O.co2  91  GLU91      -0.2457
    107  OE2       30.5690   15.4380   68.4940 O.co2  91  GLU91      -0.2457
    108  N         30.0410   13.6680   73.8080 N.am   92  ALA92      -0.1977
    109  CA        31.0530   13.3290   74.7960 C.3    92  ALA92       0.1597
    110  C         32.2600   14.2440   74.6230 C.2    92  ALA92       0.2287
    111  O         32.5600   14.6830   73.5110 O.2    92  ALA92      -0.2864
    112  CB        31.4650   11.8740   74.6410 C.3    92  ALA92       0.0319
    113  N         37.6030   10.0320   70.7060 N.3    96  LEU96      -0.1245
    114  CA        37.2880    8.6070   70.7480 C.3    96  LEU96       0.1561
    115  C         38.6090    7.8320   70.7730 C.2    96  LEU96       0.2260
    116  O         39.5290    8.1470   70.0120 O.2    96  LEU96      -0.2867
    117  CB        36.4660    8.2330   69.5110 C.3    96  LEU96       0.0270
    118  CG        35.6770    6.9230   69.4770 C.3    96  LEU96       0.0019
    119  CD1       34.6720    6.8820   70.6080 C.3    96  LEU96       0.0001
    120  CD2       34.9710    6.7960   68.1310 C.3    96  LEU96       0.0001
    121  N         30.2100   -2.7260   78.4220 N.3   189  ASP189     -0.1239
    122  CA        30.7920   -2.8900   77.0940 C.3   189  ASP189      0.1674
    123  C         32.0240   -1.9940   76.9710 C.2   189  ASP189      0.2266
    124  O         32.0600   -1.0670   76.1570 O.2   189  ASP189     -0.2867
    125  CB        29.7620   -2.5520   76.0100 C.3   189  ASP189      0.1410
    126  CG        30.2270   -2.9400   74.6200 C.2   189  ASP189      0.3668
    127  OD1       31.2300   -3.6750   74.5000 O.co2 189  ASP189     -0.2456
    128  OD2       29.5920   -2.5140   73.6400 O.co2 189  ASP189     -0.2456
    129  N         35.5750    2.0530   71.4310 N.3   193  SER193     -0.1202
    130  CA        34.5370    2.8010   70.7280 C.3   193  SER193      0.2020
    131  C         33.5570    3.4780   71.6840 C.2   193  SER193      0.2618
    132  O         32.6850    4.2370   71.2550 O.2   193  SER193     -0.2717
    133  CB        33.7760    1.8660   69.8020 C.3   193  SER193      0.2103
    134  OG        34.6800    1.1840   68.9570 O.3   193  SER193     -0.2182
    135  N         33.6900    3.1890   72.9760 N.am  194  ASN194     -0.1974
    136  CA        32.7990    3.7620   73.9790 C.3   194  ASN194      0.1688
    137  C         33.5460    4.6180   74.9950 C.2   194  ASN194      0.2292
    138  O         32.9530    5.0930   75.9600 O.2   194  ASN194     -0.2864
    139  CB        32.0430    2.6530   74.7200 C.3   194  ASN194      0.1181
    140  CG        31.2230    1.7720   73.7960 C.2   194  ASN194      0.2629
    141  OD1       30.6930    2.2240   72.7850 O.2   194  ASN194     -0.2716
    142  ND2       31.0890    0.5060   74.1610 N.am  194  ASN194     -0.0877
    143  N         36.3700    7.9110   75.7150 N.3   196  PHE196     -0.1241
    144  CA        36.9440    9.1420   75.1900 C.3   196  PHE196      0.1605
    145  C         38.0970    9.6030   76.0690 C.2   196  PHE196      0.2264
    146  O         38.0340    9.5030   77.2910 O.2   196  PHE196     -0.2867
    147  CB        35.8770   10.2420   75.1080 C.3   196  PHE196      0.0534
    148  CG        34.7830    9.9550   74.1150 C.ar  196  PHE196     -0.0203
    149  CD1       33.7230    9.1160   74.4500 C.ar  196  PHE196     -0.0042
    150  CD2       34.8180   10.5160   72.8380 C.ar  196  PHE196     -0.0042
    151  CE1       32.7150    8.8360   73.5300 C.ar  196  PHE196     -0.0003
    152  CE2       33.8140   10.2410   71.9100 C.ar  196  PHE196     -0.0003
    153  CZ        32.7580    9.3970   72.2600 C.ar  196  PHE196     -0.0000
    154  N         30.2950    6.2990   77.0500 N.3   206  ILE206     -0.1231
    155  CA        29.0000    6.2670   76.3730 C.3   206  ILE206      0.1692
    156  C         28.6250    4.7910   76.2520 C.2   206  ILE206      0.2592
    157  O         29.4170    3.9200   76.6370 O.2   206  ILE206     -0.2718
    158  CB        29.0350    6.9070   74.9580 C.3   206  ILE206      0.0266
    159  CG1       30.0700    6.2030   74.0740 C.3   206  ILE206      0.0019
    160  CG2       29.3110    8.4020   75.0560 C.3   206  ILE206      0.0020
    161  CD1       30.0310    6.6320   72.6250 C.3   206  ILE206      0.0001
    162  N         27.4330    4.5180   75.7140 N.am  207  ASP207     -0.1974
    163  CA        26.9320    3.1530   75.5420 C.3   207  ASP207      0.1709
    164  C         26.7900    2.5120   76.9320 C.2   207  ASP207      0.2293
    165  O         27.4860    1.5590   77.2650 O.2   207  ASP207     -0.2864
    166  CB        27.9030    2.3610   74.6580 C.3   207  ASP207      0.1436
    167  CG        27.2210    1.2530   73.8720 C.2   207  ASP207      0.3671
    168  OD1       26.0370    0.9530   74.1380 O.co2 207  ASP207     -0.2456
    169  OD2       27.8840    0.6780   72.9810 O.co2 207  ASP207     -0.2456
    170  N         24.1870   -1.3580   79.3150 N.3   210  ARG210     -0.1245
    171  CA        24.6220   -2.5450   80.0340 C.3   210  ARG210      0.1563
    172  C         25.3190   -2.2050   81.3570 C.2   210  ARG210      0.2260
    173  O         25.8800   -3.0850   82.0020 O.2   210  ARG210     -0.2867
    174  CB        25.5400   -3.3780   79.1320 C.3   210  ARG210      0.0307
    175  CG        25.5750   -4.8520   79.4390 C.3   210  ARG210      0.0489
    176  CD        24.9080   -5.6500   78.3340 C.3   210  ARG210      0.2205
    177  NE        25.6160   -5.5380   77.0670 N.pl3 210  ARG210     -0.0865
    178  CZ        25.0270   -5.5280   75.8740 C.cat 210  ARG210      0.5346
    179  NH1       23.6990   -5.6250   75.7650 N.pl3 210  ARG210      0.1354
    180  NH2       25.7720   -5.3970   74.7870 N.pl3 210  ARG210      0.1354
@<TRIPOS>BOND
     1     4     3    2
     2     3     2    1
     3     1     2    1
     4     9    10    1
     5    12    11    2
     6     2     5    1
     7    10    11    1
     8    10    13    1
     9    11    18   am
    10    16    15   ar
    11    21    20    2
    12    18    19    1
    13    19    20    1
    14     5     6    1
    15    20    22   am
    16    15    17   ar
    17    15    14    1
    18    27    28    1
    19    27    26    1
    20     7     6   ar
    21    13    14    1
    22    44    43    2
    23     6     8   ar
    24    28    29    1
    25    22    23    1
    26    23    26    1
    27    23    24    1
    28    43    42    1
    29    33    32    2
    30    41    42    1
    31    24    30   am
    32    24    25    2
    33    30    31    1
    34    42    45    1
    35    39    38    2
    36    45    46    1
    37    45    47    1
    38    32    31    1
    39    59    58    1
    40    38    37    1
    41    57    58   ar
    42    57    55   ar
    43    31    34    1
    44    58    56   ar
    45   120   118    1
    46    36    37    1
    47    55    53   ar
    48   107   105   ar
    49    37    40    1
    50    34    35    1
    51    56    54   ar
    52   134   133    1
    53    53    54   ar
    54    53    52    1
    55   118   117    1
    56   118   119    1
    57   117   114    1
    58   105   106   ar
    59   105   104    1
    60    49    50    1
    61    49    48    1
    62    49    52    1
    63   133   130    1
    64   116   115    2
    65    50    51    2
    66    61    60    1
    67    61    62    1
    68    61    64    1
    69    62    63    2
    70   113   114    1
    71   130   129    1
    72   130   131    1
    73   114   115    1
    74   104   103    1
    75    65    64    1
    76    65    66    1
    77   132   131    2
    78   103   100    1
    79   131   135   am
    80   152   153   ar
    81   152   150   ar
    82    67    66    1
    83    67    68    1
    84   153   151   ar
    85   161   159    1
    86   100    99    1
    87   100   101    1
    88   141   140    2
    89   150   148   ar
    90    88    87    2
    91   135   136    1
    92   169   167   ar
    93    99    95   am
    94    92    91    1
    95   111   110    2
    96   151   149   ar
    97   128   126   ar
    98   101   108   am
    99   101   102    2
   100   140   142   am
   101   140   139    1
   102   108   109    1
   103    85    86    1
   104   167   168   ar
   105   167   166    1
   106   136   139    1
   107   136   137    1
   108    90    91    1
   109    90    89    1
   110    95    96    2
   111    95    94    1
   112   159   158    1
   113    87    86    1
   114    87    93   am
   115   148   149   ar
   116   148   147    1
   117   127   126   ar
   118    94    93    1
   119    94    97    1
   120   126   125    1
   121   110   109    1
   122   112   109    1
   123   166   163    1
   124    86    89    1
   125   180   178    1
   126   158   160    1
   127   158   155    1
   128   137   138    2
   129   147   144    1
   130   144   143    1
   131   144   145    1
   132    76    75   ar
   133   163   162    1
   134   163   164    1
   135    77    75   ar
   136   162   156   am
   137    97    98    1
   138   179   178    1
   139   178   177    2
   140   125   122    1
   141    75    74    1
   142   145   146    2
   143   124   123    2
   144   156   155    1
   145   156   157    2
   146   155   154    1
   147    83    82    1
   148    83    84    1
   149   164   165    2
   150   123   122    1
   151   177   176    1
   152   122   121    1
   153    82    79    1
   154    74    73    1
   155    73    70    1
   156    79    78    1
   157    79    80    1
   158    84    78    1
   159   176   175    1
   160   174   175    1
   161   174   171    1
   162    80    81    2
   163   170   171    1
   164    70    69    1
   165    70    71    1
   166    71    72    2
   167   171   172    1
   168   172   173    2
