@<TRIPOS>MOLECULE
tmp/1j84A00.pdb
 120 115 0 0 0
SMALL
GASTEIGER

@<TRIPOS>ATOM
      1  N         28.6420   40.0320   48.3740 N.3    26  ASN26      -0.1226
      2  CA        28.8780   41.4030   48.8130 C.3    26  ASN26       0.1770
      3  C         29.9240   41.4010   49.9190 C.2    26  ASN26       0.2439
      4  O         29.9120   40.5450   50.8010 O.2    26  ASN26      -0.2733
      5  CB        27.5710   42.0210   49.3290 C.3    26  ASN26       0.1168
      6  CG        27.7430   43.4470   49.8430 C.2    26  ASN26       0.2627
      7  OD1       27.7980   44.4040   49.0650 O.2    26  ASN26      -0.2716
      8  ND2       27.8250   43.5900   51.1620 N.am   26  ASN26      -0.0877
      9  N         30.8500   42.3650   49.8780 N.am   27  PRO27      -0.2718
     10  CA        31.9220   42.4930   50.8670 C.3    27  PRO27       0.1535
     11  C         31.4190   42.4700   52.3100 C.2    27  PRO27       0.2598
     12  O         32.0800   41.9300   53.2010 O.2    27  PRO27      -0.2715
     13  CB        32.5550   43.8300   50.5040 C.3    27  PRO27       0.0310
     14  CG        32.3860   43.8760   49.0150 C.3    27  PRO27       0.0237
     15  CD        30.9650   43.4060   48.8410 C.3    27  PRO27       0.0939
     16  N         30.2460   43.0520   52.5410 N.am   28  ASP28      -0.1972
     17  CA        29.6970   43.1010   53.8900 C.3    28  ASP28       0.1709
     18  C         28.7950   41.9290   54.2650 C.2    28  ASP28       0.2293
     19  O         28.0990   41.9690   55.2840 O.2    28  ASP28      -0.2864
     20  CB        28.9700   44.4340   54.0980 C.3    28  ASP28       0.1436
     21  CG        29.8870   45.6300   53.8720 C.2    28  ASP28       0.3671
     22  OD1       31.0270   45.6130   54.3860 O.co2  28  ASP28      -0.2456
     23  OD2       29.4780   46.5850   53.1840 O.co2  28  ASP28      -0.2456
     24  N         18.9080   39.6520   57.8730 N.3    62  TRP62      -0.1241
     25  CA        20.2550   40.1400   58.1500 C.3    62  TRP62       0.1605
     26  C         21.2560   39.0030   58.3030 C.2    62  TRP62       0.2264
     27  O         22.4650   39.2050   58.1870 O.2    62  TRP62      -0.2867
     28  CB        20.2690   40.9780   59.4350 C.3    62  TRP62       0.0550
     29  CG        19.4660   42.2170   59.3250 C.ar   62  TRP62       0.0003
     30  CD1       18.2150   42.4330   59.8220 C.ar   62  TRP62       0.0946
     31  CD2       19.8390   43.4140   58.6380 C.ar   62  TRP62       0.0152
     32  NE1       17.7880   43.6910   59.4870 N.ar   62  TRP62      -0.2442
     33  CE2       18.7650   44.3170   58.7620 C.ar   62  TRP62       0.0810
     34  CE3       20.9820   43.8110   57.9290 C.ar   62  TRP62       0.0012
     35  CZ2       18.7950   45.5960   58.2040 C.ar   62  TRP62       0.0191
     36  CZ3       21.0120   45.0850   57.3720 C.ar   62  TRP62       0.0001
     37  CH2       19.9260   45.9610   57.5150 C.ar   62  TRP62       0.0015
     38  N         24.6240   38.2410   51.3590 N.3    66  ARG66      -0.1245
     39  CA        24.3050   39.4390   50.5860 C.3    66  ARG66       0.1563
     40  C         25.0780   39.3450   49.2640 C.2    66  ARG66       0.2260
     41  O         26.2810   39.0790   49.2550 O.2    66  ARG66      -0.2867
     42  CB        24.7670   40.7170   51.3060 C.3    66  ARG66       0.0307
     43  CG        24.2560   40.9500   52.7210 C.3    66  ARG66       0.0489
     44  CD        24.8160   42.2670   53.2700 C.3    66  ARG66       0.2205
     45  NE        24.4430   42.5100   54.6690 N.pl3  66  ARG66      -0.0865
     46  CZ        24.6980   43.6370   55.3290 C.cat  66  ARG66       0.5346
     47  NH1       25.3250   44.6400   54.7250 N.pl3  66  ARG66       0.1354
     48  NH2       24.3390   43.7640   56.6010 N.pl3  66  ARG66       0.1354
     49  N         25.7480   41.3210   45.3820 N.3    68  SER68      -0.1217
     50  CA        25.6010   42.6170   44.7400 C.3    68  SER68       0.1889
     51  C         26.2740   42.6140   43.3850 C.2    68  SER68       0.2288
     52  O         27.2180   41.8710   43.1640 O.2    68  SER68      -0.2866
     53  CB        26.1640   43.7410   45.6250 C.3    68  SER68       0.2089
     54  OG        27.4500   43.4380   46.1310 O.3    68  SER68      -0.2183
     55  N         28.5400   44.2420   41.7680 N.3    70  ASP70      -0.1239
     56  CA        29.6690   45.1610   41.8350 C.3    70  ASP70       0.1674
     57  C         30.3770   45.4610   40.5160 C.2    70  ASP70       0.2266
     58  O         30.8840   46.5690   40.3340 O.2    70  ASP70      -0.2867
     59  CB        30.6790   44.6830   42.8860 C.3    70  ASP70       0.1410
     60  CG        30.1370   44.7960   44.3140 C.2    70  ASP70       0.3668
     61  OD1       29.2970   45.6820   44.5730 O.co2  70  ASP70      -0.2456
     62  OD2       30.5580   44.0130   45.1900 O.co2  70  ASP70      -0.2456
     63  N         20.5680   50.6230   44.7980 N.3   103  GLN103     -0.1245
     64  CA        21.4280   51.7520   45.1500 C.3   103  GLN103      0.1566
     65  C         21.5870   52.7380   43.9880 C.2   103  GLN103      0.2260
     66  O         21.6070   52.3400   42.8230 O.2   103  GLN103     -0.2867
     67  CB        22.8190   51.2620   45.5780 C.3   103  GLN103      0.0367
     68  CG        22.8410   50.3650   46.8070 C.3   103  GLN103      0.0905
     69  CD        24.2560   49.9290   47.1770 C.2   103  GLN103      0.2608
     70  OE1       24.9520   49.3050   46.3770 O.2   103  GLN103     -0.2717
     71  NE2       24.6870   50.2640   48.3950 N.am  103  GLN103     -0.0878
     72  N         22.8470   55.5090   48.7200 N.3   108  GLY108     -0.1210
     73  CA        23.5790   54.2690   48.9060 C.3   108  GLY108      0.1956
     74  C         23.0870   53.2160   49.8830 C.2   108  GLY108      0.2611
     75  O         23.6030   52.1060   49.8720 O.2   108  GLY108     -0.2717
     76  N         22.1110   53.5220   50.7260 N.am  109  TRP109     -0.1976
     77  CA        21.6520   52.5050   51.6630 C.3   109  TRP109      0.1640
     78  C         20.3570   52.8120   52.3900 C.2   109  TRP109      0.2290
     79  O         20.0410   53.9630   52.6840 O.2   109  TRP109     -0.2864
     80  CB        22.7490   52.2070   52.6940 C.3   109  TRP109      0.0576
     81  CG        22.3860   51.1170   53.6550 C.ar  109  TRP109      0.0006
     82  CD1       21.6570   51.2410   54.8030 C.ar  109  TRP109      0.0946
     83  CD2       22.6980   49.7300   53.5240 C.ar  109  TRP109      0.0152
     84  NE1       21.4940   50.0110   55.3940 N.ar  109  TRP109     -0.2442
     85  CE2       22.1250   49.0660   54.6290 C.ar  109  TRP109      0.0810
     86  CE3       23.4080   48.9790   52.5750 C.ar  109  TRP109      0.0012
     87  CZ2       22.2390   47.6830   54.8160 C.ar  109  TRP109      0.0191
     88  CZ3       23.5210   47.6060   52.7580 C.ar  109  TRP109      0.0001
     89  CH2       22.9370   46.9730   53.8750 C.ar  109  TRP109      0.0015
     90  N         17.8320   50.3810   55.2350 N.3   111  ASN111     -0.1240
     91  CA        17.5260   49.0800   55.8040 C.3   111  ASN111      0.1653
     92  C         16.1920   48.5610   55.2770 C.2   111  ASN111      0.2266
     93  O         15.1690   49.2470   55.3660 O.2   111  ASN111     -0.2867
     94  CB        17.4880   49.1550   57.3320 C.3   111  ASN111      0.1155
     95  CG        18.8330   49.5270   57.9350 C.2   111  ASN111      0.2627
     96  OD1       19.8830   49.1490   57.4230 O.2   111  ASN111     -0.2716
     97  ND2       18.8040   50.2570   59.0450 N.am  111  ASN111     -0.0877
     98  N         22.3760   52.2230   40.1730 N.3   158  THR158     -0.1203
     99  CA        23.7480   51.9750   39.7250 C.3   158  THR158      0.1994
    100  C         24.3260   50.6920   40.3320 C.2   158  THR158      0.2617
    101  O         25.4600   50.3190   40.0540 O.2   158  THR158     -0.2717
    102  CB        24.6740   53.1580   40.0870 C.3   158  THR158      0.1784
    103  OG1       24.3890   53.5950   41.4220 O.3   158  THR158     -0.2211
    104  CG2       24.4770   54.3240   39.1090 C.3   158  THR158      0.0376
    105  N         23.5380   50.0330   41.1750 N.am  159  ASN159     -0.1974
    106  CA        23.9390   48.7810   41.8120 C.3   159  ASN159      0.1688
    107  C         22.7850   48.3290   42.6930 C.2   159  ASN159      0.2292
    108  O         21.8180   49.0610   42.8920 O.2   159  ASN159     -0.2864
    109  CB        25.1940   48.9700   42.6740 C.3   159  ASN159      0.1181
    110  CG        25.9020   47.6470   43.0010 C.2   159  ASN159      0.2629
    111  OD1       25.3840   46.5610   42.7520 O.2   159  ASN159     -0.2716
    112  ND2       27.0960   47.7490   43.5730 N.am  159  ASN159     -0.0877
    113  N         21.8710   45.3470   46.1520 N.3   161  ILE161     -0.1245
    114  CA        22.2610   44.3280   47.1080 C.3   161  ILE161      0.1561
    115  C         21.0660   43.4370   47.3920 C.2   161  ILE161      0.2260
    116  O         19.9770   43.9240   47.7060 O.2   161  ILE161     -0.2867
    117  CB        22.7180   44.9810   48.4290 C.3   161  ILE161      0.0252
    118  CG1       23.9080   45.9040   48.1490 C.3   161  ILE161      0.0019
    119  CG2       23.0290   43.9050   49.4750 C.3   161  ILE161      0.0019
    120  CD1       24.2360   46.8390   49.2580 C.3   161  ILE161      0.0001
@<TRIPOS>BOND
     1   104   102    1
     2    99   102    1
     3    99    98    1
     4    99   100    1
     5   101   100    2
     6   102   103    1
     7   100   105   am
     8    58    57    2
     9    57    56    1
    10   105   106    1
    11    55    56    1
    12   106   109    1
    13   106   107    1
    14    56    59    1
    15   109   110    1
    16   107   108    2
    17   111   110    2
    18    66    65    2
    19    59    60    1
    20   110   112   am
    21    52    51    2
    22    51    50    1
    23    65    64    1
    24    60    61   ar
    25    60    62   ar
    26    50    49    1
    27    50    53    1
    28    63    64    1
    29    64    67    1
    30    67    68    1
    31    53    54    1
    32   113   114    1
    33    70    69    2
    34    68    69    1
    35   114   115    1
    36   114   117    1
    37    69    71   am
    38   115   116    2
    39   118   117    1
    40   118   120    1
    41     1     2    1
    42   117   119    1
    43    72    73    1
    44     2     5    1
    45     2     3    1
    46    15    14    1
    47    15     9    1
    48    73    74    1
    49    14    13    1
    50     7     6    2
    51    41    40    2
    52    40    39    1
    53     5     6    1
    54     6     8   am
    55    75    74    2
    56     9     3   am
    57     9    10    1
    58    74    76   am
    59     3     4    2
    60    13    10    1
    61    39    42    1
    62    39    38    1
    63    76    77    1
    64    10    11    1
    65    42    43    1
    66    77    78    1
    67    77    80    1
    68    11    16   am
    69    11    12    2
    70    78    79    2
    71    16    17    1
    72    86    88   ar
    73    86    83   ar
    74    80    81    1
    75    43    44    1
    76    88    89   ar
    77    23    21   ar
    78    44    45    1
    79    83    81   ar
    80    83    85   ar
    81    81    82   ar
    82    21    20    1
    83    21    22   ar
    84    89    87   ar
    85    17    20    1
    86    17    18    1
    87    18    19    2
    88    85    87   ar
    89    85    84   ar
    90    45    46    2
    91    47    46    1
    92    82    84   ar
    93    90    91    1
    94    92    93    2
    95    92    91    1
    96    46    48    1
    97    91    94    1
    98    94    95    1
    99    36    37   ar
   100    36    34   ar
   101    96    95    2
   102    37    35   ar
   103    24    25    1
   104    34    31   ar
   105    95    97   am
   106    25    26    1
   107    25    28    1
   108    27    26    2
   109    35    33   ar
   110    31    33   ar
   111    31    29   ar
   112    33    32   ar
   113    29    28    1
   114    29    30   ar
   115    32    30   ar
