@<TRIPOS>MOLECULE
tmp/1j86A01.pdb
 100 96 0 0 0
SMALL
GASTEIGER

@<TRIPOS>ATOM
      1  N         50.9200   -4.8050  -11.9840 N.3    41  HIS41      -0.1226
      2  CA        49.6230   -4.1770  -12.2040 C.3    41  HIS41       0.1752
      3  C         48.9380   -5.0940  -13.1920 C.2    41  HIS41       0.2596
      4  O         49.5230   -5.4560  -14.2150 O.2    41  HIS41      -0.2718
      5  CB        49.7460   -2.7910  -12.8260 C.3    41  HIS41       0.0759
      6  CG        48.4560   -2.0350  -12.8290 C.ar   41  HIS41       0.0818
      7  ND1       47.2910   -2.5680  -12.3170 N.ar   41  HIS41      -0.2268
      8  CD2       48.1560   -0.7760  -13.2210 C.ar   41  HIS41       0.1154
      9  CE1       46.3270   -1.6670  -12.3890 C.ar   41  HIS41       0.1986
     10  NE2       46.8250   -0.5700  -12.9330 N.ar   41  HIS41      -0.2212
     11  N         47.7090   -5.4820  -12.8860 N.am   42  ASN42      -0.1974
     12  CA        46.9940   -6.3930  -13.7610 C.3    42  ASN42       0.1688
     13  C         47.9460   -7.4350  -14.3740 C.2    42  ASN42       0.2292
     14  O         48.0030   -7.6000  -15.5950 O.2    42  ASN42      -0.2864
     15  CB        46.2910   -5.6100  -14.8620 C.3    42  ASN42       0.1181
     16  CG        45.0210   -4.9520  -14.3790 C.2    42  ASN42       0.2629
     17  OD1       44.4200   -5.4050  -13.3780 O.2    42  ASN42      -0.2716
     18  ND2       44.6090   -3.9060  -15.1040 N.am   42  ASN42      -0.0877
     19  N         41.2190    5.8960  -13.9550 N.3    60  PHE60      -0.1227
     20  CA        40.4590    4.6580  -13.8940 C.3    60  PHE60       0.1736
     21  C         41.3840    3.5240  -14.3140 C.2    60  PHE60       0.2595
     22  O         41.2670    2.3940  -13.8370 O.2    60  PHE60      -0.2718
     23  CB        39.2540    4.7250  -14.8190 C.3    60  PHE60       0.0547
     24  CG        38.3220    5.8460  -14.5050 C.ar   60  PHE60      -0.0202
     25  CD1       38.5790    7.1270  -14.9690 C.ar   60  PHE60      -0.0042
     26  CD2       37.1880    5.6210  -13.7390 C.ar   60  PHE60      -0.0042
     27  CE1       37.7160    8.1660  -14.6740 C.ar   60  PHE60      -0.0003
     28  CE2       36.3160    6.6560  -13.4340 C.ar   60  PHE60      -0.0003
     29  CZ        36.5770    7.9300  -13.9010 C.ar   60  PHE60      -0.0000
     30  N         42.3170    3.8460  -15.2020 N.am   61  GLU61      -0.1979
     31  CA        43.2720    2.8670  -15.6930 C.3    61  GLU61       0.1602
     32  C         44.0970    2.3190  -14.5350 C.2    61  GLU61       0.2287
     33  O         44.7110    1.2590  -14.6420 O.2    61  GLU61      -0.2864
     34  CB        44.1980    3.4970  -16.7480 C.3    61  GLU61       0.0415
     35  CG        43.5130    3.8970  -18.0720 C.3    61  GLU61       0.1163
     36  CD        42.6920    5.1820  -17.9730 C.2    61  GLU61       0.3649
     37  OE1       43.2840    6.2520  -17.7130 O.co2  61  GLU61      -0.2457
     38  OE2       41.4550    5.1240  -18.1610 O.co2  61  GLU61      -0.2457
     39  N         42.8290    1.3840  -11.7700 N.3    63  SER63      -0.1202
     40  CA        42.0490    0.3480  -11.0970 C.3    63  SER63       0.2020
     41  C         42.6730   -0.9960  -11.4560 C.2    63  SER63       0.2619
     42  O         43.5440   -1.0840  -12.3330 O.2    63  SER63      -0.2717
     43  CB        40.5960    0.3700  -11.5680 C.3    63  SER63       0.2103
     44  OG        39.9910    1.6310  -11.3370 O.3    63  SER63      -0.2182
     45  N         42.2510   -2.0560  -10.7860 N.am   64  GLY64      -0.1942
     46  CA        42.8290   -3.3390  -11.1270 C.3    64  GLY64       0.2014
     47  C         43.3800   -4.1820   -9.9950 C.2    64  GLY64       0.2638
     48  O         43.0380   -4.0140   -8.8230 O.2    64  GLY64      -0.2714
     49  N         44.2510   -5.1080  -10.3680 N.am   65  GLU65      -0.1977
     50  CA        44.8510   -6.0260   -9.4230 C.3    65  GLU65       0.1602
     51  C         46.3180   -5.7220   -9.2420 C.2    65  GLU65       0.2287
     52  O         47.0830   -5.6860  -10.2100 O.2    65  GLU65      -0.2864
     53  CB        44.7010   -7.4510   -9.9370 C.3    65  GLU65       0.0415
     54  CG        45.4120   -8.5010   -9.1170 C.3    65  GLU65       0.1163
     55  CD        45.6930   -9.7680   -9.9080 C.2    65  GLU65       0.3649
     56  OE1       46.6130   -9.7420  -10.7740 O.co2  65  GLU65      -0.2457
     57  OE2       44.9870  -10.7790   -9.6630 O.co2  65  GLU65      -0.2457
     58  N         43.0150   -5.7330   -4.8400 N.3    80  TYR80      -0.1241
     59  CA        42.2540   -5.0430   -5.8610 C.3    80  TYR80       0.1605
     60  C         41.9200   -3.6200   -5.5120 C.2    80  TYR80       0.2264
     61  O         41.3000   -3.3360   -4.4930 O.2    80  TYR80      -0.2867
     62  CB        40.9880   -5.8280   -6.1940 C.3    80  TYR80       0.0534
     63  CG        41.3250   -7.2050   -6.7020 C.ar   80  TYR80      -0.0201
     64  CD1       41.3570   -8.2990   -5.8370 C.ar   80  TYR80      -0.0009
     65  CD2       41.6970   -7.4040   -8.0340 C.ar   80  TYR80      -0.0009
     66  CE1       41.7520   -9.5580   -6.2810 C.ar   80  TYR80       0.0417
     67  CE2       42.0940   -8.6630   -8.4870 C.ar   80  TYR80       0.0417
     68  CZ        42.1200   -9.7340   -7.6060 C.ar   80  TYR80       0.1957
     69  OH        42.5080  -10.9770   -8.0590 O.3    80  TYR80      -0.2866
     70  N         40.1420   -0.0970   -6.9120 N.3    82  GLU82      -0.1231
     71  CA        39.1260    0.3430   -7.8560 C.3    82  GLU82       0.1699
     72  C         38.8160    1.8480   -7.8000 C.2    82  GLU82       0.2592
     73  O         38.2600    2.3330   -6.8160 O.2    82  GLU82      -0.2718
     74  CB        37.8510   -0.4640   -7.6210 C.3    82  GLU82       0.0402
     75  CG        36.7070   -0.1060   -8.5460 C.3    82  GLU82       0.1161
     76  CD        35.5930   -1.1300   -8.4960 C.2    82  GLU82       0.3649
     77  OE1       35.2270   -1.5470   -7.3760 O.co2  82  GLU82      -0.2457
     78  OE2       35.0810   -1.5130   -9.5720 O.co2  82  GLU82      -0.2457
     79  N         39.1710    2.5750   -8.8620 N.am   83  VAL83      -0.1980
     80  CA        38.9210    4.0150   -8.9450 C.3    83  VAL83       0.1595
     81  C         37.4650    4.3330   -9.3170 C.2    83  VAL83       0.2287
     82  O         36.9300    3.8130  -10.2950 O.2    83  VAL83      -0.2864
     83  CB        39.8060    4.6720  -10.0070 C.3    83  VAL83       0.0276
     84  CG1       39.6240    6.1700   -9.9630 C.3    83  VAL83       0.0022
     85  CG2       41.2490    4.2840   -9.7980 C.3    83  VAL83       0.0022
     86  N         34.1520    7.5010   -9.3990 N.3    85  SER85      -0.1217
     87  CA        33.8310    8.8840   -9.7080 C.3    85  SER85       0.1889
     88  C         32.3450    9.0470   -9.4750 C.2    85  SER85       0.2288
     89  O         31.5290    8.7150  -10.3230 O.2    85  SER85      -0.2866
     90  CB        34.1660    9.2230  -11.1540 C.3    85  SER85       0.2089
     91  OG        33.9900   10.6110  -11.3660 O.3    85  SER85      -0.2183
     92  N         27.4060    3.6240   -4.0370 N.3   163  GLU163     -0.1245
     93  CA        27.1840    2.3230   -4.6470 C.3   163  GLU163      0.1567
     94  C         27.2950    1.3260   -3.5120 C.2   163  GLU163      0.2260
     95  O         28.1530    1.4710   -2.6470 O.2   163  GLU163     -0.2867
     96  CB        28.2630    2.0270   -5.6890 C.3   163  GLU163      0.0388
     97  CG        28.1840    2.8780   -6.9450 C.3   163  GLU163      0.1160
     98  CD        27.0140    2.4930   -7.8330 C.2   163  GLU163      0.3649
     99  OE1       26.9930    1.3440   -8.3250 O.co2 163  GLU163     -0.2457
    100  OE2       26.1150    3.3370   -8.0400 O.co2 163  GLU163     -0.2457
@<TRIPOS>BOND
     1    38    36   ar
     2    35    36    1
     3    35    34    1
     4    36    37   ar
     5    34    31    1
     6    31    30    1
     7    31    32    1
     8    14    13    2
     9    30    21   am
    10    18    16   am
    11    25    27   ar
    12    25    24   ar
    13    15    16    1
    14    15    12    1
    15    23    24    1
    16    23    20    1
    17    27    29   ar
    18    33    32    2
    19    24    26   ar
    20    16    17    2
    21    13    12    1
    22    21    20    1
    23    21    22    2
    24     4     3    2
    25    19    20    1
    26    29    28   ar
    27    12    11    1
    28    26    28   ar
    29     8    10   ar
    30     8     6   ar
    31     3    11   am
    32     3     2    1
    33    10     9   ar
    34     6     5    1
    35     6     7   ar
    36     5     2    1
    37     9     7   ar
    38    42    41    2
    39     2     1    1
    40    39    40    1
    41    43    44    1
    42    43    40    1
    43    41    40    1
    44    41    45   am
    45    91    90    1
    46    90    87    1
    47    46    45    1
    48    46    47    1
    49    56    55   ar
    50    49    47   am
    51    49    50    1
    52    89    88    2
    53    82    81    2
    54    52    51    2
    55    83    84    1
    56    83    85    1
    57    83    80    1
    58    47    48    2
    59    53    50    1
    60    53    54    1
    61    55    57   ar
    62    55    54    1
    63    87    88    1
    64    87    86    1
    65    78    76   ar
    66    50    51    1
    67    81    80    1
    68    80    79    1
    69    79    72   am
    70    75    76    1
    71    75    74    1
    72    76    77   ar
    73    67    65   ar
    74    67    68   ar
    75    99    98   ar
    76    69    68    1
    77   100    98   ar
    78    65    63   ar
    79    71    72    1
    80    71    74    1
    81    71    70    1
    82    98    97    1
    83    72    73    2
    84    68    66   ar
    85    97    96    1
    86    63    62    1
    87    63    64   ar
    88    66    64   ar
    89    62    59    1
    90    59    60    1
    91    59    58    1
    92    96    93    1
    93    60    61    2
    94    93    92    1
    95    93    94    1
    96    94    95    2
