@<TRIPOS>MOLECULE
tmp/1j86B02.pdb
 90 91 0 0 0
SMALL
GASTEIGER

@<TRIPOS>ATOM
      1  N         14.0040   23.8790   32.8460 N.3    10  ASN10      -0.1226
      2  CA        14.8170   24.2360   31.7070 C.3    10  ASN10       0.1770
      3  C         15.4970   22.9970   31.1840 C.2    10  ASN10       0.2439
      4  O         16.4160   22.4700   31.8140 O.2    10  ASN10      -0.2733
      5  CB        15.8870   25.2550   32.0480 C.3    10  ASN10       0.1168
      6  CG        16.7700   25.5530   30.8610 C.2    10  ASN10       0.2627
      7  OD1       16.3030   26.0950   29.8550 O.2    10  ASN10      -0.2716
      8  ND2       18.0420   25.1810   30.9520 N.am   10  ASN10      -0.0877
      9  N         15.0690   22.5200   30.0020 N.am   11  PRO11      -0.2718
     10  CA        13.9990   23.0930   29.1660 C.3    11  PRO11       0.1520
     11  C         12.6210   22.9860   29.8130 C.2    11  PRO11       0.2440
     12  O         12.3680   22.0710   30.6030 O.2    11  PRO11      -0.2731
     13  CB        14.1080   22.2900   27.8900 C.3    11  PRO11       0.0310
     14  CG        15.6120   21.9570   27.8370 C.3    11  PRO11       0.0237
     15  CD        15.8450   21.5200   29.2440 C.3    11  PRO11       0.0939
     16  N         11.7000   23.9010   29.4550 N.am   12  PRO12      -0.2716
     17  CA        10.3150   24.0210   29.9530 C.3    12  PRO12       0.1536
     18  C          9.5240   22.7370   30.0020 C.2    12  PRO12       0.2598
     19  O          8.5860   22.5920   30.7860 O.2    12  PRO12      -0.2715
     20  CB         9.6810   25.0290   29.0020 C.3    12  PRO12       0.0310
     21  CG        10.8530   25.8250   28.5060 C.3    12  PRO12       0.0237
     22  CD        11.8930   24.7530   28.2750 C.3    12  PRO12       0.0939
     23  N          9.9100   21.8070   29.1440 N.am   13  TRP13      -0.1974
     24  CA         9.2410   20.5230   29.0310 C.3    13  TRP13       0.1640
     25  C          9.1660   19.7680   30.3410 C.2    13  TRP13       0.2290
     26  O         10.1790   19.3430   30.8790 O.2    13  TRP13      -0.2864
     27  CB         9.9660   19.7020   27.9790 C.3    13  TRP13       0.0576
     28  CG        10.3370   20.5750   26.8580 C.ar   13  TRP13       0.0006
     29  CD1       11.5750   20.7250   26.2960 C.ar   13  TRP13       0.0946
     30  CD2        9.4760   21.5020   26.1960 C.ar   13  TRP13       0.0152
     31  NE1       11.5380   21.6980   25.3240 N.ar   13  TRP13      -0.2442
     32  CE2       10.2600   22.1890   25.2400 C.ar   13  TRP13       0.0810
     33  CE3        8.1140   21.8210   26.3180 C.ar   13  TRP13       0.0012
     34  CZ2        9.7270   23.1740   24.4110 C.ar   13  TRP13       0.0191
     35  CZ3        7.5830   22.8000   25.4950 C.ar   13  TRP13       0.0001
     36  CH2        8.3900   23.4660   24.5510 C.ar   13  TRP13       0.0015
     37  N          4.6580   23.8740   26.9370 N.3    93  SER93      -0.1217
     38  CA         5.2090   24.9470   27.7620 C.3    93  SER93       0.1889
     39  C          4.5590   24.8920   29.1390 C.2    93  SER93       0.2288
     40  O          5.1640   25.2550   30.1440 O.2    93  SER93      -0.2866
     41  CB         4.9060   26.3090   27.1220 C.3    93  SER93       0.2089
     42  OG         3.4990   26.5190   26.9930 O.3    93  SER93      -0.2183
     43  N          2.7420   26.8310   24.4080 N.3   104  PHE104     -0.1241
     44  CA         3.6890   26.3110   23.4240 C.3   104  PHE104      0.1605
     45  C          3.7400   24.7900   23.2850 C.2   104  PHE104      0.2264
     46  O          4.1900   24.0910   24.1850 O.2   104  PHE104     -0.2867
     47  CB         5.0750   26.8290   23.7690 C.3   104  PHE104      0.0534
     48  CG         6.0580   26.6890   22.6740 C.ar  104  PHE104     -0.0203
     49  CD1        6.2020   27.6980   21.7310 C.ar  104  PHE104     -0.0042
     50  CD2        6.8620   25.5600   22.5860 C.ar  104  PHE104     -0.0042
     51  CE1        7.1460   27.5900   20.7020 C.ar  104  PHE104     -0.0003
     52  CE2        7.8130   25.4380   21.5630 C.ar  104  PHE104     -0.0003
     53  CZ         7.9540   26.4590   20.6190 C.ar  104  PHE104     -0.0000
     54  N          4.8650   21.1490   21.2000 N.3   106  ARG106     -0.1245
     55  CA         6.0180   20.6540   20.4600 C.3   106  ARG106      0.1563
     56  C          5.9290   19.1280   20.2700 C.2   106  ARG106      0.2260
     57  O          5.5020   18.3880   21.1700 O.2   106  ARG106     -0.2867
     58  CB         7.2770   21.0430   21.2340 C.3   106  ARG106      0.0307
     59  CG         8.5850   20.4410   20.7490 C.3   106  ARG106      0.0489
     60  CD         9.6970   20.6020   21.8220 C.3   106  ARG106      0.2205
     61  NE        11.0250   20.2210   21.3280 N.pl3 106  ARG106     -0.0865
     62  CZ        12.0670   19.9290   22.1030 C.cat 106  ARG106      0.5346
     63  NH1       11.9460   19.9710   23.4210 N.pl3 106  ARG106      0.1354
     64  NH2       13.2320   19.5860   21.5610 N.pl3 106  ARG106      0.1354
     65  N          9.7170   19.3180   11.3830 N.3   133  ASN133     -0.1225
     66  CA         9.0860   19.4110   12.6960 C.3   133  ASN133      0.1785
     67  C          8.8470   20.8720   12.9800 C.2   133  ASN133      0.2597
     68  O          9.6500   21.7190   12.5910 O.2   133  ASN133     -0.2718
     69  CB         9.9780   18.8200   13.7870 C.3   133  ASN133      0.1169
     70  CG         9.1750   18.3040   14.9930 C.2   133  ASN133      0.2627
     71  OD1        8.1660   18.9060   15.4190 O.2   133  ASN133     -0.2716
     72  ND2        9.6330   17.1830   15.5580 N.am  133  ASN133     -0.0877
     73  N          7.7480   21.1670   13.6570 N.am  134  HIS134     -0.1961
     74  CA         7.4050   22.5380   13.9840 C.3   134  HIS134      0.1787
     75  C          6.6990   22.6070   15.3400 C.2   134  HIS134      0.2620
     76  O          6.1200   21.6170   15.8050 O.2   134  HIS134     -0.2715
     77  CB         6.4920   23.0950   12.9000 C.3   134  HIS134      0.0785
     78  CG         5.2310   22.3060   12.7180 C.ar  134  HIS134      0.0821
     79  ND1        5.2190   21.0330   12.1840 N.ar  134  HIS134     -0.2267
     80  CD2        3.9470   22.5920   13.0410 C.ar  134  HIS134      0.1154
     81  CE1        3.9800   20.5700   12.1900 C.ar  134  HIS134      0.1986
     82  NE2        3.1900   21.4950   12.7050 N.ar  134  HIS134     -0.2212
     83  N          6.7300   23.7790   15.9690 N.am  135  ASN135     -0.1972
     84  CA         6.0990   23.9400   17.2790 C.3   135  ASN135      0.1688
     85  C          4.8580   24.7760   17.1870 C.2   135  ASN135      0.2292
     86  O          4.9130   25.8780   16.6640 O.2   135  ASN135     -0.2864
     87  CB         7.0010   24.6830   18.2700 C.3   135  ASN135      0.1181
     88  CG         8.3560   24.0360   18.4630 C.2   135  ASN135      0.2629
     89  OD1        8.4510   22.8610   18.8400 O.2   135  ASN135     -0.2716
     90  ND2        9.4040   24.8270   18.2160 N.am  135  ASN135     -0.0877
@<TRIPOS>BOND
     1    65    66    1
     2    79    81   ar
     3    79    78   ar
     4    81    82   ar
     5    68    67    2
     6    66    67    1
     7    66    69    1
     8    82    80   ar
     9    78    77    1
    10    78    80   ar
    11    77    74    1
    12    67    73   am
    13    73    74    1
    14    69    70    1
    15    74    75    1
    16    70    71    2
    17    70    72   am
    18    75    76    2
    19    75    83   am
    20    83    84    1
    21    86    85    2
    22    85    84    1
    23    84    87    1
    24    90    88   am
    25    87    88    1
    26    88    89    2
    27    56    55    1
    28    56    57    2
    29    55    54    1
    30    55    58    1
    31    53    51   ar
    32    53    52   ar
    33    51    49   ar
    34    59    58    1
    35    59    60    1
    36    61    60    1
    37    61    62    2
    38    64    62    1
    39    52    50   ar
    40    49    48   ar
    41    62    63    1
    42    50    48   ar
    43    48    47    1
    44    45    44    1
    45    45    46    2
    46    44    47    1
    47    44    43    1
    48    34    36   ar
    49    34    32   ar
    50    36    35   ar
    51    32    31   ar
    52    32    30   ar
    53    31    29   ar
    54    35    33   ar
    55    30    33   ar
    56    30    28   ar
    57    29    28   ar
    58    28    27    1
    59    37    38    1
    60    42    41    1
    61    41    38    1
    62    38    39    1
    63    14    13    1
    64    14    15    1
    65    13    10    1
    66    27    24    1
    67    22    21    1
    68    22    16    1
    69    21    20    1
    70    20    17    1
    71    24    23    1
    72    24    25    1
    73    39    40    2
    74    23    18   am
    75    10    11    1
    76    10     9    1
    77    15     9    1
    78    16    11   am
    79    16    17    1
    80    11    12    2
    81     7     6    2
    82    17    18    1
    83     9     3   am
    84    18    19    2
    85    25    26    2
    86     6     8   am
    87     6     5    1
    88     3     2    1
    89     3     4    2
    90     2     5    1
    91     2     1    1
