@<TRIPOS>MOLECULE
tmp/1j88B05.pdb
 86 83 0 0 0
SMALL
GASTEIGER

@<TRIPOS>ATOM
      1  N         32.3480   58.0200   17.7840 N.3     3  LYS3       -0.1245
      2  CA        32.6080   59.3340   17.2200 C.3     3  LYS3        0.1561
      3  C         33.6490   59.2930   16.1150 C.2     3  LYS3        0.2260
      4  O         34.8030   58.9480   16.3380 O.2     3  LYS3       -0.2867
      5  CB        33.0470   60.3050   18.3310 C.3     3  LYS3        0.0271
      6  CG        33.2590   61.7460   17.8720 C.3     3  LYS3        0.0035
      7  CD        33.5730   62.6560   19.0460 C.3     3  LYS3        0.0206
      8  CE        33.7350   64.1020   18.6040 C.3     3  LYS3        0.1093
      9  NZ        33.9490   65.0150   19.7670 N.3     3  LYS3       -0.1314
     10  N         42.9500   66.5520   10.3520 N.3     9  PRO9       -0.2116
     11  CA        41.7180   67.0350   10.9900 C.3     9  PRO9        0.1372
     12  C         40.8530   67.8250   10.0080 C.2     9  PRO9        0.2244
     13  O         39.6480   67.9810   10.1930 O.2     9  PRO9       -0.2868
     14  CB        42.2350   67.9250   12.1230 C.3     9  PRO9        0.0268
     15  CG        43.6660   67.4880   12.3160 C.3     9  PRO9        0.0207
     16  CD        44.1190   67.2440   10.9130 C.3     9  PRO9        0.0892
     17  N         40.2530   59.2050   18.3210 N.3    26  ASN26      -0.1225
     18  CA        41.6920   59.1660   18.5060 C.3    26  ASN26       0.1785
     19  C         42.1700   58.2000   19.5840 C.2    26  ASN26       0.2597
     20  O         42.8940   58.5850   20.5070 O.2    26  ASN26      -0.2718
     21  CB        42.2070   60.5760   18.8100 C.3    26  ASN26       0.1169
     22  CG        41.7350   61.6090   17.7880 C.2    26  ASN26       0.2627
     23  OD1       41.5580   61.3000   16.6060 O.2    26  ASN26      -0.2716
     24  ND2       41.5540   62.8470   18.2390 N.am   26  ASN26      -0.0877
     25  N         41.7400   56.9500   19.4570 N.am   27  ASN27      -0.1974
     26  CA        42.1290   55.8850   20.3610 C.3    27  ASN27       0.1688
     27  C         42.3780   54.6720   19.4430 C.2    27  ASN27       0.2292
     28  O         41.6470   54.4310   18.4810 O.2    27  ASN27      -0.2864
     29  CB        41.0540   55.6860   21.4430 C.3    27  ASN27       0.1181
     30  CG        41.1080   56.7830   22.5220 C.2    27  ASN27       0.2629
     31  OD1       42.1430   57.4330   22.7040 O.2    27  ASN27      -0.2716
     32  ND2       40.0050   56.9780   23.2410 N.am   27  ASN27      -0.0877
     33  N         40.3800   73.6790   11.8970 N.3    90  SER90      -0.1202
     34  CA        40.4200   72.4970   12.7500 C.3    90  SER90       0.2020
     35  C         38.9800   72.0840   12.9720 C.2    90  SER90       0.2619
     36  O         38.5690   70.9910   12.6080 O.2    90  SER90      -0.2717
     37  CB        41.0950   72.8240   14.0890 C.3    90  SER90       0.2103
     38  OG        40.5170   73.9480   14.7410 O.3    90  SER90      -0.2182
     39  N         38.2130   73.0030   13.5410 N.am   91  ALA91      -0.1965
     40  CA        36.8040   72.7980   13.8290 C.3    91  ALA91       0.1728
     41  C         36.0460   74.0400   13.4040 C.2    91  ALA91       0.2616
     42  O         36.5430   75.1410   13.5640 O.2    91  ALA91      -0.2715
     43  CB        36.6150   72.5690   15.3010 C.3    91  ALA91       0.0334
     44  N         34.8460   73.8730   12.8660 N.am   92  GLU92      -0.1963
     45  CA        34.0840   75.0300   12.4420 C.3    92  GLU92       0.1733
     46  C         33.3210   75.6420   13.6050 C.2    92  GLU92       0.2616
     47  O         32.8480   76.7710   13.5210 O.2    92  GLU92      -0.2715
     48  CB        33.1370   74.6580   11.3030 C.3    92  GLU92       0.0429
     49  CG        33.8510   74.0960   10.0890 C.3    92  GLU92       0.1163
     50  CD        32.9670   74.0580    8.8470 C.2    92  GLU92       0.3649
     51  OE1       33.4300   73.5690    7.7910 O.co2  92  GLU92      -0.2457
     52  OE2       31.8090   74.5250    8.9190 O.co2  92  GLU92      -0.2457
     53  N         33.2150   74.9110   14.7020 N.am   93  VAL93      -0.1963
     54  CA        32.5220   75.4430   15.8620 C.3    93  VAL93       0.1727
     55  C         33.2890   75.0180   17.0790 C.2    93  VAL93       0.2616
     56  O         33.6810   73.8630   17.1990 O.2    93  VAL93      -0.2715
     57  CB        31.1290   74.9060   15.9700 C.3    93  VAL93       0.0290
     58  CG1       30.3740   75.7240   16.9820 C.3    93  VAL93       0.0023
     59  CG2       30.4580   74.9290   14.5990 C.3    93  VAL93       0.0023
     60  N         33.4850   75.9450   18.0000 N.am   94  VAL94      -0.1977
     61  CA        34.2860   75.6490   19.1750 C.3    94  VAL94       0.1596
     62  C         33.7940   76.2080   20.4930 C.2    94  VAL94       0.2287
     63  O         33.3680   77.3610   20.5740 O.2    94  VAL94      -0.2864
     64  CB        35.6940   76.1770   18.9600 C.3    94  VAL94       0.0276
     65  CG1       36.5510   75.8840   20.1620 C.3    94  VAL94       0.0022
     66  CG2       36.2750   75.5560   17.6810 C.3    94  VAL94       0.0022
     67  N         37.1640   78.6140   25.0060 N.3    97  GLY97      -0.1210
     68  CA        38.2670   78.0330   25.7520 C.3    97  GLY97       0.1956
     69  C         39.1130   76.9910   25.0460 C.2    97  GLY97       0.2612
     70  O         40.2330   76.7120   25.4700 O.2    97  GLY97      -0.2717
     71  N         38.5900   76.4130   23.9720 N.am   98  GLN98      -0.1966
     72  CA        39.3260   75.3950   23.2330 C.3    98  GLN98       0.1718
     73  C         40.2830   75.9830   22.2050 C.2    98  GLN98       0.2458
     74  O         40.3070   77.1870   21.9710 O.2    98  GLN98      -0.2730
     75  CB        38.3540   74.4310   22.5330 C.3    98  GLN98       0.0407
     76  CG        37.5000   73.6000   23.4730 C.3    98  GLN98       0.0908
     77  CD        38.3230   72.9420   24.5600 C.2    98  GLN98       0.2608
     78  OE1       38.7860   73.6030   25.4880 O.2    98  GLN98      -0.2717
     79  NE2       38.5210   71.6350   24.4450 N.am   98  GLN98      -0.0878
     80  N         41.1020   75.1280   21.5830 N.am   99  PRO99      -0.2727
     81  CA        42.0400   75.6210   20.5800 C.3    99  PRO99       0.1402
     82  C         41.3630   75.7020   19.2070 C.2    99  PRO99       0.2269
     83  O         40.4080   74.9570   18.9260 O.2    99  PRO99      -0.2865
     84  CB        43.1460   74.5770   20.6210 C.3    99  PRO99       0.0296
     85  CG        42.3540   73.3250   20.8080 C.3    99  PRO99       0.0237
     86  CD        41.3600   73.7090   21.8810 C.3    99  PRO99       0.0939
@<TRIPOS>BOND
     1    51    50   ar
     2    50    52   ar
     3    50    49    1
     4    12    13    2
     5    12    11    1
     6    49    48    1
     7    10    16    1
     8    10    11    1
     9    16    15    1
    10    11    14    1
    11    48    45    1
    12    33    34    1
    13    14    15    1
    14    45    44    1
    15    45    46    1
    16    36    35    2
    17    34    35    1
    18    34    37    1
    19    44    41   am
    20    35    39   am
    21    41    42    2
    22    41    40    1
    23    47    46    2
    24    39    40    1
    25    46    53   am
    26    40    43    1
    27    37    38    1
    28    59    57    1
    29    53    54    1
    30    54    57    1
    31    54    55    1
    32    57    58    1
    33     3     4    2
    34     3     2    1
    35    23    22    2
    36    55    56    2
    37    55    60   am
    38     2     1    1
    39     2     5    1
    40    66    64    1
    41    22    24   am
    42    22    21    1
    43     6     5    1
    44     6     7    1
    45    60    61    1
    46    17    18    1
    47    28    27    2
    48    18    21    1
    49    18    19    1
    50     8     7    1
    51     8     9    1
    52    83    82    2
    53    64    61    1
    54    64    65    1
    55    61    62    1
    56    82    81    1
    57    27    26    1
    58    25    19   am
    59    25    26    1
    60    19    20    2
    61    26    29    1
    62    62    63    2
    63    81    84    1
    64    81    80    1
    65    84    85    1
    66    85    86    1
    67    29    30    1
    68    80    86    1
    69    80    73   am
    70    74    73    2
    71    73    72    1
    72    30    31    2
    73    30    32   am
    74    75    72    1
    75    75    76    1
    76    72    71    1
    77    76    77    1
    78    71    69   am
    79    79    77   am
    80    77    78    2
    81    67    68    1
    82    69    70    2
    83    69    68    1
