@<TRIPOS>MOLECULE
tmp/1j88A02.pdb
 83 81 0 0 0
SMALL
GASTEIGER

@<TRIPOS>ATOM
      1  N         17.2000   26.5400    6.9570 N.3    27  ASN27      -0.1225
      2  CA        17.8570   25.8900    5.8310 C.3    27  ASN27       0.1785
      3  C         19.3370   25.6410    6.1090 C.2    27  ASN27       0.2597
      4  O         20.0690   25.2640    5.2050 O.2    27  ASN27      -0.2718
      5  CB        17.6890   26.7270    4.5520 C.3    27  ASN27       0.1169
      6  CG        18.1040   25.9720    3.2940 C.2    27  ASN27       0.2627
      7  OD1       19.2870   25.9010    2.9480 O.2    27  ASN27      -0.2716
      8  ND2       17.1250   25.3900    2.6130 N.am   27  ASN27      -0.0877
      9  N         19.7730   25.8500    7.3540 N.am   28  PHE28      -0.1962
     10  CA        21.1680   25.6090    7.7380 C.3    28  PHE28       0.1771
     11  C         21.3010   24.1440    8.1450 C.2    28  PHE28       0.2620
     12  O         22.4050   23.6110    8.2430 O.2    28  PHE28      -0.2715
     13  CB        21.5840   26.5060    8.9200 C.3    28  PHE28       0.0574
     14  CG        23.0120   26.2900    9.3820 C.ar   28  PHE28      -0.0200
     15  CD1       24.0860   26.7620    8.6280 C.ar   28  PHE28      -0.0042
     16  CD2       23.2810   25.6030   10.5630 C.ar   28  PHE28      -0.0042
     17  CE1       25.4070   26.5500    9.0450 C.ar   28  PHE28      -0.0003
     18  CE2       24.6000   25.3870   10.9870 C.ar   28  PHE28      -0.0003
     19  CZ        25.6630   25.8620   10.2260 C.ar   28  PHE28      -0.0000
     20  N         20.1600   23.4990    8.3750 N.am   29  PHE29      -0.1960
     21  CA        20.1300   22.1000    8.7830 C.3    29  PHE29       0.1771
     22  C         19.7930   21.1340    7.6420 C.2    29  PHE29       0.2619
     23  O         18.9690   21.4350    6.7790 O.2    29  PHE29      -0.2715
     24  CB        19.1180   21.9100    9.9160 C.3    29  PHE29       0.0574
     25  CG        19.3810   22.7720   11.1280 C.ar   29  PHE29      -0.0200
     26  CD1       20.6800   23.0130   11.5660 C.ar   29  PHE29      -0.0042
     27  CD2       18.3220   23.3160   11.8500 C.ar   29  PHE29      -0.0042
     28  CE1       20.9140   23.7810   12.7020 C.ar   29  PHE29      -0.0003
     29  CE2       18.5480   24.0850   12.9870 C.ar   29  PHE29      -0.0003
     30  CZ        19.8470   24.3170   13.4140 C.ar   29  PHE29      -0.0000
     31  N         20.4380   19.9660    7.6620 N.am   30  GLU30      -0.1963
     32  CA        20.2440   18.9110    6.6560 C.3    30  GLU30       0.1733
     33  C         19.8980   17.5760    7.3120 C.2    30  GLU30       0.2616
     34  O         20.1830   17.3590    8.4830 O.2    30  GLU30      -0.2715
     35  CB        21.5130   18.6790    5.8390 C.3    30  GLU30       0.0429
     36  CG        22.2080   19.9120    5.3200 C.3    30  GLU30       0.1163
     37  CD        23.4570   19.5610    4.5460 C.2    30  GLU30       0.3649
     38  OE1       24.1110   18.5550    4.8970 O.co2  30  GLU30      -0.2457
     39  OE2       23.8070   20.2910    3.5970 O.co2  30  GLU30      -0.2457
     40  N         19.3260   16.6720    6.5260 N.am   31  VAL31      -0.1977
     41  CA        18.9280   15.3500    6.9940 C.3    31  VAL31       0.1596
     42  C         18.6570   14.4640    5.7680 C.2    31  VAL31       0.2287
     43  O         18.4650   14.9720    4.6610 O.2    31  VAL31      -0.2864
     44  CB        17.6310   15.4340    7.8960 C.3    31  VAL31       0.0276
     45  CG1       17.1260   14.0370    8.2470 C.3    31  VAL31       0.0022
     46  CG2       17.9200   16.1920    9.1760 C.3    31  VAL31       0.0022
     47  N         11.5110   12.0530   -4.1580 N.3    45  GLU45      -0.1245
     48  CA        12.6350   12.7230   -3.5130 C.3    45  GLU45       0.1567
     49  C         12.8180   12.2420   -2.0740 C.2    45  GLU45       0.2260
     50  O         11.8700   11.7940   -1.4300 O.2    45  GLU45      -0.2867
     51  CB        12.4370   14.2400   -3.5340 C.3    45  GLU45       0.0388
     52  CG        13.4610   15.0120   -2.7040 C.3    45  GLU45       0.1160
     53  CD        14.8590   14.9790   -3.2910 C.2    45  GLU45       0.3649
     54  OE1       15.0830   15.6520   -4.3190 O.co2  45  GLU45      -0.2457
     55  OE2       15.7330   14.2840   -2.7290 O.co2  45  GLU45      -0.2457
     56  N         15.7260   13.9050   -0.2240 N.3    47  ASN47      -0.1225
     57  CA        16.4140   15.0170    0.4050 C.3    47  ASN47       0.1785
     58  C         15.3670   15.6680    1.3060 C.2    47  ASN47       0.2598
     59  O         14.1850   15.6440    0.9830 O.2    47  ASN47      -0.2718
     60  CB        16.8710   16.0040   -0.6760 C.3    47  ASN47       0.1169
     61  CG        17.7760   17.0970   -0.1380 C.2    47  ASN47       0.2627
     62  OD1       17.7220   17.4440    1.0440 O.2    47  ASN47      -0.2716
     63  ND2       18.5950   17.6550   -1.0310 N.am   47  ASN47      -0.0877
     64  N         15.7720   16.2470    2.4260 N.am   48  SER48      -0.1938
     65  CA        14.7880   16.9000    3.2820 C.3    48  SER48       0.2055
     66  C         14.2450   18.1660    2.5960 C.2    48  SER48       0.2643
     67  O         13.2340   18.7210    3.0200 O.2    48  SER48      -0.2714
     68  CB        15.4110   17.2920    4.6190 C.3    48  SER48       0.2130
     69  OG        16.2440   18.4330    4.4750 O.3    48  SER48      -0.2179
     70  N         14.9330   18.6390    1.5590 N.am   49  SER49      -0.1949
     71  CA        14.4970   19.8260    0.8290 C.3    49  SER49       0.1924
     72  C         14.0050   19.4360   -0.5490 C.2    49  SER49       0.2314
     73  O         14.7790   19.0120   -1.3980 O.2    49  SER49      -0.2863
     74  CB        15.6300   20.8410    0.7080 C.3    49  SER49       0.2116
     75  OG        15.9610   21.3790    1.9770 O.3    49  SER49      -0.2180
     76  N         12.6390   20.6820   -3.8660 N.3    51  ASN51      -0.1240
     77  CA        12.5080   21.8500   -4.7200 C.3    51  ASN51       0.1653
     78  C         11.3920   21.7040   -5.7310 C.2    51  ASN51       0.2266
     79  O         10.9140   20.6050   -6.0020 O.2    51  ASN51      -0.2867
     80  CB        13.8190   22.1340   -5.4560 C.3    51  ASN51       0.1155
     81  CG        14.8810   22.7220   -4.5510 C.2    51  ASN51       0.2627
     82  OD1       14.6900   23.7850   -3.9670 O.2    51  ASN51      -0.2716
     83  ND2       16.0120   22.0340   -4.4360 N.am   51  ASN51      -0.0877
@<TRIPOS>BOND
     1    79    78    2
     2    78    77    1
     3    80    77    1
     4    80    81    1
     5    77    76    1
     6    81    83   am
     7    81    82    2
     8    54    53   ar
     9    47    48    1
    10    51    48    1
    11    51    52    1
    12    48    49    1
    13    53    55   ar
    14    53    52    1
    15    49    50    2
    16    73    72    2
    17    63    61   am
    18    60    61    1
    19    60    57    1
    20    72    71    1
    21    56    57    1
    22    61    62    2
    23    57    58    1
    24    74    71    1
    25    74    75    1
    26    71    70    1
    27    59    58    2
    28    58    64   am
    29    70    66   am
    30    64    65    1
    31    66    67    2
    32    66    65    1
    33     8     6   am
    34     7     6    2
    35    65    68    1
    36     6     5    1
    37    39    37   ar
    38    69    68    1
    39    37    38   ar
    40    37    36    1
    41     5     2    1
    42    43    42    2
    43     4     3    2
    44    36    35    1
    45    42    41    1
    46     2     3    1
    47     2     1    1
    48    35    32    1
    49     3     9   am
    50    40    41    1
    51    40    33   am
    52    32    33    1
    53    32    31    1
    54    23    22    2
    55    41    44    1
    56    33    34    2
    57     9    10    1
    58    22    31   am
    59    22    21    1
    60    10    11    1
    61    10    13    1
    62    44    45    1
    63    44    46    1
    64    11    12    2
    65    11    20   am
    66    20    21    1
    67    15    17   ar
    68    15    14   ar
    69    21    24    1
    70    13    14    1
    71    17    19   ar
    72    14    16   ar
    73    24    25    1
    74    19    18   ar
    75    16    18   ar
    76    25    26   ar
    77    25    27   ar
    78    26    28   ar
    79    27    29   ar
    80    28    30   ar
    81    29    30   ar
