@<TRIPOS>MOLECULE
tmp/1j8rA00.pdb
 125 120 0 0 0
SMALL
GASTEIGER

@<TRIPOS>ATOM
      1  N         22.6190   22.5160   65.8940 N.3    59  GLU59      -0.1245
      2  CA        21.8670   21.5900   65.0470 C.3    59  GLU59       0.1567
      3  C         21.6480   22.3980   63.7690 C.2    59  GLU59       0.2260
      4  O         20.9360   23.3980   63.7930 O.2    59  GLU59      -0.2867
      5  CB        20.5060   21.1820   65.6370 C.3    59  GLU59       0.0388
      6  CG        19.8320   20.1350   64.7580 C.3    59  GLU59       0.1160
      7  CD        18.3670   19.9130   65.0550 C.2    59  GLU59       0.3649
      8  OE1       17.8460   18.8170   64.7180 O.co2  59  GLU59      -0.2457
      9  OE2       17.7130   20.8300   65.5900 O.co2  59  GLU59      -0.2457
     10  N         20.4490   22.4710   59.6660 N.3    61  ILE61      -0.1245
     11  CA        19.6740   21.7760   58.6390 C.3    61  ILE61       0.1561
     12  C         19.5490   22.6510   57.3890 C.2    61  ILE61       0.2260
     13  O         19.0550   23.7820   57.4500 O.2    61  ILE61      -0.2867
     14  CB        18.2390   21.4110   59.1370 C.3    61  ILE61       0.0252
     15  CG1       18.3150   20.5360   60.3990 C.3    61  ILE61       0.0019
     16  CG2       17.4600   20.7040   58.0170 C.3    61  ILE61       0.0019
     17  CD1       16.9320   20.2680   61.0710 C.3    61  ILE61       0.0001
     18  N         16.5670   14.9000   51.8080 N.3    88  SER88      -0.1202
     19  CA        15.3850   14.2920   52.3910 C.3    88  SER88       0.2020
     20  C         14.1780   15.0490   51.8550 C.2    88  SER88       0.2619
     21  O         13.9570   16.2010   52.2260 O.2    88  SER88      -0.2717
     22  CB        15.4430   14.3890   53.9230 C.3    88  SER88       0.2103
     23  OG        14.2030   14.0110   54.5020 O.3    88  SER88      -0.2182
     24  N         13.4070   14.4120   50.9690 N.am   89  GLU89      -0.1965
     25  CA        12.2280   15.0360   50.3830 C.3    89  GLU89       0.1733
     26  C         11.0510   14.7900   51.3340 C.2    89  GLU89       0.2616
     27  O         10.6050   13.6510   51.5050 O.2    89  GLU89      -0.2715
     28  CB        11.9600   14.4460   48.9860 C.3    89  GLU89       0.0429
     29  CG        10.8190   15.1150   48.2260 C.3    89  GLU89       0.1163
     30  CD        10.6260   14.5460   46.8200 C.2    89  GLU89       0.3649
     31  OE1        9.5550   14.7690   46.2260 O.co2  89  GLU89      -0.2457
     32  OE2       11.5530   13.8910   46.3060 O.co2  89  GLU89      -0.2457
     33  N         10.5350   15.8610   51.9310 N.am   90  GLU90      -0.1977
     34  CA         9.4790   15.7390   52.9280 C.3    90  GLU90       0.1602
     35  C          8.1980   16.4950   52.6280 C.2    90  GLU90       0.2287
     36  O          8.1080   17.2290   51.6470 O.2    90  GLU90      -0.2864
     37  CB        10.0440   16.2080   54.2780 C.3    90  GLU90       0.0415
     38  CG        11.5310   15.8550   54.4720 C.3    90  GLU90       0.1163
     39  CD        12.0650   16.1190   55.8850 C.2    90  GLU90       0.3649
     40  OE1       11.4450   16.9040   56.6280 O.co2  90  GLU90      -0.2457
     41  OE2       13.1160   15.5430   56.2440 O.co2  90  GLU90      -0.2457
     42  N         15.3250   18.7030   52.7260 N.3   101  LEU101     -0.1231
     43  CA        16.1090   19.0470   53.9080 C.3   101  LEU101      0.1693
     44  C         17.3270   18.1680   54.0380 C.2   101  LEU101      0.2592
     45  O         17.3260   17.0090   53.6050 O.2   101  LEU101     -0.2718
     46  CB        15.2770   18.8790   55.1930 C.3   101  LEU101      0.0284
     47  CG        14.1520   19.8620   55.5230 C.3   101  LEU101      0.0019
     48  CD1       12.9820   19.6840   54.5530 C.3   101  LEU101      0.0001
     49  CD2       13.7130   19.6210   56.9820 C.3   101  LEU101      0.0001
     50  N         18.3760   18.7210   54.6280 N.am  102  LYS102     -0.1966
     51  CA        19.5710   17.9490   54.8870 C.3   102  LYS102      0.1728
     52  C         20.1360   18.3840   56.2360 C.2   102  LYS102      0.2616
     53  O         20.7960   19.4340   56.3490 O.2   102  LYS102     -0.2715
     54  CB        20.5970   18.1150   53.7630 C.3   102  LYS102      0.0311
     55  CG        21.8690   17.2940   53.9750 C.3   102  LYS102      0.0038
     56  CD        21.6110   15.8470   54.4280 C.3   102  LYS102      0.0206
     57  CE        20.8850   15.0110   53.4070 C.3   102  LYS102      0.1093
     58  NZ        20.9910   13.5370   53.7620 N.3   102  LYS102     -0.1314
     59  N         19.8070   17.5920   57.2600 N.am  103  GLY103     -0.1955
     60  CA        20.2620   17.8410   58.6190 C.3   103  GLY103      0.1869
     61  C         21.5610   17.0830   58.7650 C.2   103  GLY103      0.2309
     62  O         21.5450   15.8530   58.8800 O.2   103  GLY103     -0.2863
     63  N         24.2130   18.1960   61.0220 N.3   105  LYS105     -0.1231
     64  CA        24.9360   18.4930   62.2440 C.3   105  LYS105      0.1693
     65  C         23.9230   18.5250   63.3760 C.2   105  LYS105      0.2592
     66  O         22.8750   19.1510   63.2500 O.2   105  LYS105     -0.2718
     67  CB        25.6470   19.8540   62.1080 C.3   105  LYS105      0.0285
     68  CG        26.4710   20.2540   63.3300 C.3   105  LYS105      0.0035
     69  CD        27.1440   21.6210   63.1810 C.3   105  LYS105      0.0206
     70  CE        28.0840   21.6720   61.9670 C.3   105  LYS105      0.1093
     71  NZ        29.1420   20.6170   62.0340 N.3   105  LYS105     -0.1314
     72  N         24.2090   17.8200   64.4620 N.am  106  TRP106     -0.1962
     73  CA        23.2930   17.8190   65.5960 C.3   106  TRP106      0.1771
     74  C         24.0590   17.5120   66.8670 C.2   106  TRP106      0.2619
     75  O         25.1480   16.9360   66.8130 O.2   106  TRP106     -0.2715
     76  CB        22.1480   16.8090   65.3720 C.3   106  TRP106      0.0590
     77  CG        22.5850   15.3890   65.1760 C.ar  106  TRP106      0.0006
     78  CD1       22.8100   14.4490   66.1520 C.ar  106  TRP106      0.0946
     79  CD2       22.9270   14.7610   63.9290 C.ar  106  TRP106      0.0152
     80  NE1       23.2780   13.2810   65.5870 N.ar  106  TRP106     -0.2442
     81  CE2       23.3590   13.4440   64.2270 C.ar  106  TRP106      0.0810
     82  CE3       22.9120   15.1850   62.5890 C.ar  106  TRP106      0.0012
     83  CZ2       23.7750   12.5470   63.2310 C.ar  106  TRP106      0.0191
     84  CZ3       23.3250   14.2910   61.5950 C.ar  106  TRP106      0.0001
     85  CH2       23.7520   12.9850   61.9260 C.ar  106  TRP106      0.0015
     86  N         23.5130   17.9330   68.0100 N.am  107  ASP107     -0.1971
     87  CA        24.1600   17.6900   69.3050 C.3   107  ASP107      0.1709
     88  C         25.6210   18.1250   69.3480 C.2   107  ASP107      0.2293
     89  O         26.3980   17.5840   70.1340 O.2   107  ASP107     -0.2864
     90  CB        24.0940   16.1930   69.6650 C.3   107  ASP107      0.1436
     91  CG        22.6710   15.6970   69.8510 C.2   107  ASP107      0.3671
     92  OD1       22.4510   14.4640   69.7910 O.co2 107  ASP107     -0.2456
     93  OD2       21.7660   16.5310   70.0580 O.co2 107  ASP107     -0.2456
     94  N         16.3900   19.3480   69.4030 N.3   168  ARG168     -0.1245
     95  CA        15.8880   19.1570   68.0570 C.3   168  ARG168      0.1563
     96  C         14.8240   20.1780   67.7080 C.2   168  ARG168      0.2260
     97  O         13.9220   20.4540   68.5050 O.2   168  ARG168     -0.2867
     98  CB        15.2950   17.7450   67.8990 C.3   168  ARG168      0.0307
     99  CG        16.2720   16.5940   68.1650 C.3   168  ARG168      0.0489
    100  CD        17.2430   16.3660   67.0130 C.3   168  ARG168      0.2205
    101  NE        18.1490   15.2660   67.3060 N.pl3 168  ARG168     -0.0865
    102  CZ        19.1890   15.3540   68.1290 C.cat 168  ARG168      0.5346
    103  NH1       19.4650   16.5090   68.7300 N.pl3 168  ARG168      0.1354
    104  NH2       19.9240   14.2750   68.3910 N.pl3 168  ARG168      0.1354
    105  N         12.7770   21.7600   63.9320 N.3   170  LYS170     -0.1245
    106  CA        12.6780   21.8650   62.4850 C.3   170  LYS170      0.1561
    107  C         11.7160   22.9960   62.2280 C.2   170  LYS170      0.2260
    108  O         10.6540   23.0510   62.8520 O.2   170  LYS170     -0.2867
    109  CB        12.1170   20.5830   61.8590 C.3   170  LYS170      0.0271
    110  CG        12.9560   19.3530   62.1240 C.3   170  LYS170      0.0035
    111  CD        12.3510   18.0950   61.4980 C.3   170  LYS170      0.0206
    112  CE        12.2380   18.1840   59.9740 C.3   170  LYS170      0.1093
    113  NZ        11.7940   16.8640   59.4310 N.3   170  LYS170     -0.1314
    114  N          6.8930   23.2630   58.1890 N.3   173  TYR173     -0.1241
    115  CA         6.7440   23.3720   56.7390 C.3   173  TYR173      0.1605
    116  C          5.9140   24.5700   56.3370 C.2   173  TYR173      0.2264
    117  O          6.2200   25.2390   55.3580 O.2   173  TYR173     -0.2867
    118  CB         6.0950   22.1200   56.1650 C.3   173  TYR173      0.0534
    119  CG         6.8610   20.8690   56.4650 C.ar  173  TYR173     -0.0201
    120  CD1        6.3140   19.8730   57.2720 C.ar  173  TYR173     -0.0009
    121  CD2        8.1400   20.6730   55.9460 C.ar  173  TYR173     -0.0009
    122  CE1        7.0210   18.7140   57.5530 C.ar  173  TYR173      0.0417
    123  CE2        8.8540   19.5170   56.2180 C.ar  173  TYR173      0.0417
    124  CZ         8.2900   18.5420   57.0210 C.ar  173  TYR173      0.1957
    125  OH         8.9990   17.3890   57.2820 O.3   173  TYR173     -0.2866
@<TRIPOS>BOND
     1    31    30   ar
     2    32    30   ar
     3    30    29    1
     4    29    28    1
     5    28    25    1
     6    25    24    1
     7    25    26    1
     8    24    20   am
     9    26    27    2
    10    26    33   am
    11    36    35    2
    12    18    19    1
    13    20    21    2
    14    20    19    1
    15    33    34    1
    16    19    22    1
    17    35    34    1
    18    42    43    1
    19    34    37    1
    20    57    58    1
    21    57    56    1
    22    45    44    2
    23    54    55    1
    24    54    51    1
    25    43    44    1
    26    43    46    1
    27    22    23    1
    28    55    56    1
    29    44    50   am
    30    37    38    1
    31    38    39    1
    32    48    47    1
    33    50    51    1
    34    51    52    1
    35    46    47    1
    36   117   116    2
    37    47    49    1
    38    39    41   ar
    39    39    40   ar
    40   121   123   ar
    41   121   119   ar
    42   118   119    1
    43   118   115    1
    44   123   124   ar
    45    52    53    2
    46    52    59   am
    47   116   115    1
    48   119   120   ar
    49   115   114    1
    50   124   125    1
    51   124   122   ar
    52    59    60    1
    53   120   122   ar
    54    12    13    2
    55    12    11    1
    56    16    14    1
    57    60    61    1
    58    11    14    1
    59    11    10    1
    60    61    62    2
    61    14    15    1
    62   113   112    1
    63   112   111    1
    64    15    17    1
    65    63    64    1
    66   111   110    1
    67    84    85   ar
    68    84    82   ar
    69   109   110    1
    70   109   106    1
    71    85    83   ar
    72    70    71    1
    73    70    69    1
    74    67    64    1
    75    67    68    1
    76   107   106    1
    77   107   108    2
    78    64    65    1
    79   106   105    1
    80    82    79   ar
    81    69    68    1
    82    83    81   ar
    83    66    65    2
    84    65    72   am
    85     3     4    2
    86     3     2    1
    87    79    81   ar
    88    79    77   ar
    89    81    80   ar
    90    72    73    1
    91     8     7   ar
    92     6     7    1
    93     6     5    1
    94     2     5    1
    95     2     1    1
    96     7     9   ar
    97    77    76    1
    98    77    78   ar
    99    76    73    1
   100    80    78   ar
   101    73    74    1
   102    75    74    2
   103    74    86   am
   104   100   101    1
   105   100    99    1
   106   101   102    2
   107    96    95    1
   108    96    97    2
   109    98    95    1
   110    98    99    1
   111    86    87    1
   112    95    94    1
   113   102   104    1
   114   102   103    1
   115    87    88    1
   116    87    90    1
   117    88    89    2
   118    90    91    1
   119    92    91   ar
   120    91    93   ar
