@<TRIPOS>MOLECULE
tmp/1j8vA03.pdb
 196 188 0 0 0
SMALL
GASTEIGER

@<TRIPOS>ATOM
      1  N         28.8240   28.2860   24.3060 N.3    36  GLU36      -0.1245
      2  CA        27.6770   29.1440   24.5530 C.3    36  GLU36       0.1567
      3  C         27.2870   29.7720   23.2270 C.2    36  GLU36       0.2260
      4  O         28.1450   30.0240   22.3800 O.2    36  GLU36      -0.2867
      5  CB        28.0590   30.2340   25.5500 C.3    36  GLU36       0.0388
      6  CG        27.1520   30.3590   26.7650 C.3    36  GLU36       0.1160
      7  CD        25.9210   31.2020   26.5000 C.2    36  GLU36       0.3649
      8  OE1       25.9200   31.9180   25.4860 O.co2  36  GLU36      -0.2457
      9  OE2       24.9630   31.1660   27.3030 O.co2  36  GLU36      -0.2457
     10  N         24.9010   25.4620   24.0110 N.3    54  LEU54      -0.1245
     11  CA        23.9960   25.5580   25.1400 C.3    54  LEU54       0.1561
     12  C         23.6330   27.0110   25.3460 C.2    54  LEU54       0.2260
     13  O         24.2160   27.9140   24.7490 O.2    54  LEU54      -0.2867
     14  CB        24.6240   25.0130   26.4230 C.3    54  LEU54       0.0270
     15  CG        25.2720   26.0540   27.3360 C.3    54  LEU54       0.0019
     16  CD1       25.2570   25.5600   28.7630 C.3    54  LEU54       0.0001
     17  CD2       26.6840   26.3470   26.8580 C.3    54  LEU54       0.0001
     18  N         23.1840   29.3630   28.5880 N.3    56  GLY56      -0.1210
     19  CA        23.2700   29.4810   30.0300 C.3    56  GLY56       0.1956
     20  C         22.1250   30.3410   30.5240 C.2    56  GLY56       0.2612
     21  O         21.4070   30.9280   29.7180 O.2    56  GLY56      -0.2717
     22  N         21.9450   30.4230   31.8380 N.am   57  GLY57      -0.1956
     23  CA        20.8680   31.2350   32.3720 C.3    57  GLY57       0.1869
     24  C         20.8140   32.6440   31.7940 C.2    57  GLY57       0.2309
     25  O         21.8110   33.3720   31.8020 O.2    57  GLY57      -0.2863
     26  N         20.6820   33.5770   28.7600 N.3    59  SER59      -0.1217
     27  CA        21.2610   33.7100   27.4230 C.3    59  SER59       0.1889
     28  C         20.2050   33.5450   26.3410 C.2    59  SER59       0.2288
     29  O         20.0130   32.4620   25.8080 O.2    59  SER59      -0.2866
     30  CB        22.3700   32.6790   27.2230 C.3    59  SER59       0.2089
     31  OG        23.0700   32.9330   26.0200 O.3    59  SER59      -0.2183
     32  N         18.7900   25.0990   30.4020 N.3    95  ASP95      -0.1239
     33  CA        18.3120   24.8370   31.7460 C.3    95  ASP95       0.1674
     34  C         16.8060   25.0010   31.8780 C.2    95  ASP95       0.2266
     35  O         16.3270   26.0450   32.3160 O.2    95  ASP95      -0.2867
     36  CB        18.9880   25.7620   32.7470 C.3    95  ASP95       0.1410
     37  CG        20.4020   25.3530   33.0420 C.2    95  ASP95       0.3668
     38  OD1       20.5900   24.2420   33.5750 O.co2  95  ASP95      -0.2456
     39  OD2       21.3200   26.1420   32.7410 O.co2  95  ASP95      -0.2456
     40  N         18.8040   20.3490   30.8570 N.3   144  PHE144     -0.1241
     41  CA        19.6990   20.0260   31.9670 C.3   144  PHE144      0.1605
     42  C         18.9040   19.7500   33.2380 C.2   144  PHE144      0.2264
     43  O         19.0570   20.4370   34.2410 O.2   144  PHE144     -0.2867
     44  CB        20.6850   21.1740   32.2120 C.3   144  PHE144      0.0534
     45  CG        21.5900   21.4580   31.0460 C.ar  144  PHE144     -0.0203
     46  CD1       22.2740   20.4270   30.4120 C.ar  144  PHE144     -0.0042
     47  CD2       21.7620   22.7570   30.5850 C.ar  144  PHE144     -0.0042
     48  CE1       23.1230   20.6850   29.3280 C.ar  144  PHE144     -0.0003
     49  CE2       22.6100   23.0310   29.5000 C.ar  144  PHE144     -0.0003
     50  CZ        23.2920   21.9900   28.8700 C.ar  144  PHE144     -0.0000
     51  N         21.0480   26.3350   46.4990 N.3   158  ARG158     -0.1245
     52  CA        20.3820   25.4870   45.5110 C.3   158  ARG158      0.1563
     53  C         19.4690   24.4600   46.1550 C.2   158  ARG158      0.2260
     54  O         19.1170   23.4680   45.5200 O.2   158  ARG158     -0.2867
     55  CB        21.4100   24.7450   44.6480 C.3   158  ARG158      0.0307
     56  CG        22.5120   25.6220   44.0920 C.3   158  ARG158      0.0489
     57  CD        23.2500   24.9350   42.9660 C.3   158  ARG158      0.2205
     58  NE        22.4120   24.7650   41.7820 N.pl3 158  ARG158     -0.0865
     59  CZ        22.8700   24.3610   40.6000 C.cat 158  ARG158      0.5346
     60  NH1       24.1610   24.0830   40.4540 N.pl3 158  ARG158      0.1354
     61  NH2       22.0470   24.2570   39.5600 N.pl3 158  ARG158      0.1354
     62  N         21.7650   15.5150   37.3820 N.3   206  LYS206     -0.1231
     63  CA        22.8340   16.3190   37.9740 C.3   206  LYS206      0.1693
     64  C         22.6480   16.5820   39.4690 C.2   206  LYS206      0.2592
     65  O         21.5230   16.4620   39.9460 O.2   206  LYS206     -0.2718
     66  CB        22.9160   17.6610   37.2390 C.3   206  LYS206      0.0285
     67  CG        21.6500   18.5160   37.3490 C.3   206  LYS206      0.0035
     68  CD        21.7900   19.8040   36.5530 C.3   206  LYS206      0.0206
     69  CE        20.5840   20.7060   36.7360 C.3   206  LYS206      0.1093
     70  NZ        20.7280   21.9800   35.9790 N.3   206  LYS206     -0.1314
     71  N         23.7190   16.8830   40.2050 N.am  207  HIS207     -0.1976
     72  CA        25.1050   16.9690   39.7390 C.3   207  HIS207      0.1656
     73  C         25.8980   15.8520   40.4130 C.2   207  HIS207      0.2291
     74  O         26.0790   15.8600   41.6310 O.2   207  HIS207     -0.2864
     75  CB        25.7300   18.3190   40.1010 C.3   207  HIS207      0.0771
     76  CG        24.8960   19.4960   39.7150 C.ar  207  HIS207      0.0820
     77  ND1       23.8410   19.9430   40.4820 N.ar  207  HIS207     -0.2267
     78  CD2       24.9490   20.3100   38.6350 C.ar  207  HIS207      0.1154
     79  CE1       23.2800   20.9840   39.8920 C.ar  207  HIS207      0.1986
     80  NE2       23.9330   21.2270   38.7690 N.ar  207  HIS207     -0.2212
     81  N         29.2060   24.4770   45.7460 N.3   220  GLU220     -0.1245
     82  CA        30.4380   24.0810   45.0700 C.3   220  GLU220      0.1567
     83  C         31.5610   23.7010   46.0300 C.2   220  GLU220      0.2260
     84  O         32.7140   23.5750   45.6140 O.2   220  GLU220     -0.2867
     85  CB        30.9270   25.2180   44.1660 C.3   220  GLU220      0.0388
     86  CG        29.9760   25.5740   43.0380 C.3   220  GLU220      0.1160
     87  CD        30.4500   26.7620   42.2130 C.2   220  GLU220      0.3649
     88  OE1       31.6450   26.8020   41.8390 O.co2 220  GLU220     -0.2457
     89  OE2       29.6200   27.6530   41.9280 O.co2 220  GLU220     -0.2457
     90  N         25.5220   15.1960   34.4660 N.3   250  MET250     -0.1245
     91  CA        26.4150   16.3320   34.6000 C.3   250  MET250      0.1570
     92  C         27.2010   16.1730   35.8960 C.2   250  MET250      0.2261
     93  O         26.6550   15.7250   36.9080 O.2   250  MET250     -0.2867
     94  CB        25.6140   17.6330   34.6190 C.3   250  MET250      0.0387
     95  CG        26.4650   18.8820   34.5420 C.3   250  MET250      0.0595
     96  SD        25.4630   20.3610   34.6140 S.3   250  MET250     -0.1393
     97  CE        24.6950   20.2930   33.0140 C.3   250  MET250      0.0692
     98  N         30.3430   20.6440   40.7350 N.3   253  TYR253     -0.1241
     99  CA        31.4960   21.5030   41.0030 C.3   253  TYR253      0.1605
    100  C         32.1100   21.0120   42.3080 C.2   253  TYR253      0.2264
    101  O         33.3130   21.1220   42.5260 O.2   253  TYR253     -0.2867
    102  CB        31.0830   22.9640   41.2220 C.3   253  TYR253      0.0534
    103  CG        30.6160   23.7430   40.0090 C.ar  253  TYR253     -0.0201
    104  CD1       31.4340   23.9090   38.8900 C.ar  253  TYR253     -0.0009
    105  CD2       29.3760   24.3780   40.0120 C.ar  253  TYR253     -0.0009
    106  CE1       31.0230   24.6960   37.8050 C.ar  253  TYR253      0.0417
    107  CE2       28.9590   25.1630   38.9430 C.ar  253  TYR253      0.0417
    108  CZ        29.7830   25.3200   37.8470 C.ar  253  TYR253      0.1957
    109  OH        29.3550   26.1200   36.8130 O.3   253  TYR253     -0.2866
    110  N         30.1710   20.8630   34.1160 N.3   285  ASP285     -0.1225
    111  CA        29.3010   21.9660   34.4730 C.3   285  ASP285      0.1805
    112  C         30.0090   23.2060   33.9370 C.2   285  ASP285      0.2598
    113  O         31.1460   23.1210   33.4790 O.2   285  ASP285     -0.2718
    114  CB        29.1370   22.0610   35.9860 C.3   285  ASP285      0.1424
    115  CG        27.9150   22.8680   36.3900 C.2   285  ASP285      0.3668
    116  OD1       27.5010   23.7640   35.6190 O.co2 285  ASP285     -0.2456
    117  OD2       27.3730   22.6160   37.4880 O.co2 285  ASP285     -0.2456
    118  N         29.3380   24.3490   33.9930 N.am  286  TRP286     -0.1962
    119  CA        29.8890   25.6030   33.4990 C.3   286  TRP286      0.1771
    120  C         31.2810   25.8790   34.0530 C.2   286  TRP286      0.2619
    121  O         31.4340   26.2710   35.2060 O.2   286  TRP286     -0.2715
    122  CB        28.9240   26.7370   33.8560 C.3   286  TRP286      0.0590
    123  CG        29.2060   28.0460   33.2070 C.ar  286  TRP286      0.0006
    124  CD1       30.1590   28.9440   33.5670 C.ar  286  TRP286      0.0946
    125  CD2       28.4890   28.6340   32.1140 C.ar  286  TRP286      0.0152
    126  NE1       30.0800   30.0600   32.7730 N.ar  286  TRP286     -0.2442
    127  CE2       29.0630   29.8950   31.8720 C.ar  286  TRP286      0.0810
    128  CE3       27.4150   28.2160   31.3180 C.ar  286  TRP286      0.0012
    129  CZ2       28.6000   30.7490   30.8650 C.ar  286  TRP286      0.0191
    130  CZ3       26.9550   29.0610   30.3170 C.ar  286  TRP286      0.0001
    131  CH2       27.5480   30.3140   30.1000 C.ar  286  TRP286      0.0015
    132  N         32.2910   25.6720   33.2150 N.am  287  GLU287     -0.1977
    133  CA        33.6870   25.8820   33.5960 C.3   287  GLU287      0.1602
    134  C         34.0510   25.0040   34.7870 C.2   287  GLU287      0.2287
    135  O         34.8590   25.3780   35.6270 O.2   287  GLU287     -0.2864
    136  CB        33.9360   27.3590   33.9250 C.3   287  GLU287      0.0415
    137  CG        33.5470   28.2960   32.7900 C.3   287  GLU287      0.1163
    138  CD        33.7670   29.7660   33.1120 C.2   287  GLU287      0.3649
    139  OE1       33.2220   30.2580   34.1270 O.co2 287  GLU287     -0.2457
    140  OE2       34.4840   30.4360   32.3380 O.co2 287  GLU287     -0.2457
    141  N         37.6530   25.0000   37.4370 N.3   291  ARG291     -0.1245
    142  CA        37.6040   25.0450   38.8850 C.3   291  ARG291      0.1563
    143  C         38.2600   23.8580   39.5640 C.2   291  ARG291      0.2260
    144  O         38.2690   23.7810   40.7900 O.2   291  ARG291     -0.2867
    145  CB        36.1450   25.2170   39.3320 C.3   291  ARG291      0.0307
    146  CG        35.5500   26.5000   38.7640 C.3   291  ARG291      0.0489
    147  CD        34.0720   26.7240   39.0520 C.3   291  ARG291      0.2205
    148  NE        33.5810   27.8440   38.2420 N.pl3 291  ARG291     -0.0865
    149  CZ        32.3220   28.2820   38.2130 C.cat 291  ARG291      0.5346
    150  NH1       31.3890   27.7050   38.9610 N.pl3 291  ARG291      0.1354
    151  NH2       31.9910   29.2920   37.4100 N.pl3 291  ARG291      0.1354
    152  N         31.4910   21.5270   28.9000 N.3   316  MET316     -0.1245
    153  CA        30.7410   22.7590   28.7600 C.3   316  MET316      0.1570
    154  C         31.7890   23.8500   28.9810 C.2   316  MET316      0.2261
    155  O         31.9040   24.4100   30.0670 O.2   316  MET316     -0.2867
    156  CB        29.6670   22.8000   29.8370 C.3   316  MET316      0.0387
    157  CG        28.6430   23.8760   29.6640 C.3   316  MET316      0.0595
    158  SD        27.3590   23.6590   30.8800 S.3   316  MET316     -0.1393
    159  CE        27.4940   25.1120   31.6620 C.3   316  MET316      0.0692
    160  N         16.2160   31.0940   38.3160 N.3   430  TRP430     -0.1241
    161  CA        16.0810   30.3060   37.0980 C.3   430  TRP430      0.1605
    162  C         14.7760   30.6360   36.3950 C.2   430  TRP430      0.2264
    163  O         14.0100   29.7400   36.0500 O.2   430  TRP430     -0.2867
    164  CB        16.1180   28.8080   37.4100 C.3   430  TRP430      0.0550
    165  CG        17.4810   28.2700   37.7100 C.ar  430  TRP430      0.0003
    166  CD1       17.9040   27.7130   38.8860 C.ar  430  TRP430      0.0946
    167  CD2       18.5970   28.2060   36.8110 C.ar  430  TRP430      0.0152
    168  NE1       19.2110   27.3030   38.7730 N.ar  430  TRP430     -0.2442
    169  CE2       19.6630   27.5930   37.5110 C.ar  430  TRP430      0.0810
    170  CE3       18.8020   28.6060   35.4820 C.ar  430  TRP430      0.0012
    171  CZ2       20.9200   27.3710   36.9230 C.ar  430  TRP430      0.0191
    172  CZ3       20.0510   28.3850   34.8990 C.ar  430  TRP430      0.0001
    173  CH2       21.0930   27.7730   35.6190 C.ar  430  TRP430      0.0015
    174  N         19.0400   34.4460   34.9790 N.3   434  TRP434     -0.1241
    175  CA        19.6590   33.3580   35.7220 C.3   434  TRP434      0.1605
    176  C         19.2740   33.4620   37.1930 C.2   434  TRP434      0.2264
    177  O         18.6980   32.5290   37.7570 O.2   434  TRP434     -0.2867
    178  CB        21.1790   33.4180   35.5620 C.3   434  TRP434      0.0550
    179  CG        21.9450   32.4250   36.3970 C.ar  434  TRP434      0.0003
    180  CD1       21.6870   31.0900   36.5430 C.ar  434  TRP434      0.0946
    181  CD2       23.1240   32.6900   37.1580 C.ar  434  TRP434      0.0152
    182  NE1       22.6370   30.5090   37.3480 N.ar  434  TRP434     -0.2442
    183  CE2       23.5320   31.4700   37.7380 C.ar  434  TRP434      0.0810
    184  CE3       23.8780   33.8420   37.4050 C.ar  434  TRP434      0.0012
    185  CZ2       24.6610   31.3710   38.5490 C.ar  434  TRP434      0.0191
    186  CZ3       25.0010   33.7430   38.2110 C.ar  434  TRP434      0.0001
    187  CH2       25.3820   32.5160   38.7730 C.ar  434  TRP434      0.0015
    188  N         22.2170   29.4000   42.8500 N.3   491  GLU491     -0.1245
    189  CA        23.5560   28.9780   43.2100 C.3   491  GLU491      0.1567
    190  C         24.1200   29.8110   44.3610 C.2   491  GLU491      0.2260
    191  O         23.4070   30.1100   45.3160 O.2   491  GLU491     -0.2867
    192  CB        24.4620   29.0230   41.9700 C.3   491  GLU491      0.0388
    193  CG        24.0740   27.9490   40.9500 C.3   491  GLU491      0.1160
    194  CD        24.7380   28.1080   39.5870 C.2   491  GLU491      0.3649
    195  OE1       25.9480   27.8000   39.4510 O.co2 491  GLU491     -0.2457
    196  OE2       24.0320   28.5420   38.6480 O.co2 491  GLU491     -0.2457
@<TRIPOS>BOND
     1     4     3    2
     2     3     2    1
     3    10    11    1
     4     1     2    1
     5     2     5    1
     6    13    12    2
     7    11    12    1
     8    11    14    1
     9     8     7   ar
    10     5     6    1
    11    29    28    2
    12    31    30    1
    13    28    27    1
    14    14    15    1
    15     7     6    1
    16     7     9   ar
    17    17    15    1
    18    30    27    1
    19    15    16    1
    20    27    26    1
    21    18    19    1
    22   153   152    1
    23   153   154    1
    24   153   156    1
    25    50    48   ar
    26    50    49   ar
    27   154   155    2
    28    48    46   ar
    29    49    47   ar
    30   157   156    1
    31   157   158    1
    32    21    20    2
    33    19    20    1
    34   131   130   ar
    35   131   129   ar
    36   130   128   ar
    37    32    33    1
    38    46    45   ar
    39    20    22   am
    40    47    45   ar
    41    40    41    1
    42   129   127   ar
    43   158   159    1
    44    45    44    1
    45   128   125   ar
    46    33    34    1
    47    33    36    1
    48    24    25    2
    49    24    23    1
    50    22    23    1
    51   127   125   ar
    52   127   126   ar
    53    34    35    2
    54    41    44    1
    55    41    42    1
    56   125   123   ar
    57   140   138   ar
    58    39    37   ar
    59    36    37    1
    60   126   124   ar
    61   137   138    1
    62   137   136    1
    63    97    96    1
    64    37    38   ar
    65   138   139   ar
    66   123   124   ar
    67   123   122    1
    68   132   133    1
    69   132   120   am
    70    42    43    2
    71   113   112    2
    72   119   122    1
    73   119   118    1
    74   119   120    1
    75   133   136    1
    76   133   134    1
    77   112   118   am
    78   112   111    1
    79   120   121    2
    80   110   111    1
    81    90    91    1
    82   111   114    1
    83    95    96    1
    84    95    94    1
    85    91    94    1
    86    91    92    1
    87   134   135    2
    88   172   170   ar
    89   172   173   ar
    90   174   175    1
    91   170   167   ar
    92   178   175    1
    93   178   179    1
    94   173   171   ar
    95   116   115   ar
    96   175   176    1
    97    92    93    2
    98    70    69    1
    99   114   115    1
   100   163   162    2
   101   115   117   ar
   102   162   161    1
   103   179   180   ar
   104   179   181   ar
   105   180   182   ar
   106    68    69    1
   107    68    67    1
   108   167   169   ar
   109   167   165   ar
   110   109   108    1
   111   171   169   ar
   112   161   164    1
   113   161   160    1
   114   181   184   ar
   115   181   183   ar
   116   176   177    2
   117    66    67    1
   118    66    63    1
   119   182   183   ar
   120    62    63    1
   121   184   186   ar
   122   164   165    1
   123   151   149    1
   124   141   142    1
   125   169   168   ar
   126   165   166   ar
   127   183   185   ar
   128   106   108   ar
   129   106   104   ar
   130   108   107   ar
   131    63    64    1
   132   186   187   ar
   133   149   148    2
   134   149   150    1
   135   148   147    1
   136   185   187   ar
   137    78    80   ar
   138    78    76   ar
   139   196   194   ar
   140   146   147    1
   141   146   145    1
   142    80    79   ar
   143   168   166   ar
   144   142   145    1
   145   142   143    1
   146   104   103   ar
   147   107   105   ar
   148   195   194   ar
   149    64    65    2
   150    64    71   am
   151    61    59    1
   152   143   144    2
   153   194   193    1
   154    76    75    1
   155    76    77   ar
   156    72    75    1
   157    72    71    1
   158    72    73    1
   159    79    77   ar
   160   103   105   ar
   161   103   102    1
   162    73    74    2
   163    60    59    1
   164    59    58    2
   165    98    99    1
   166   193   192    1
   167    99   102    1
   168    99   100    1
   169    58    57    1
   170    88    87   ar
   171    89    87   ar
   172   192   189    1
   173    87    86    1
   174   100   101    2
   175   188   189    1
   176    57    56    1
   177    86    85    1
   178   189   190    1
   179    56    55    1
   180    85    82    1
   181   190   191    2
   182    55    52    1
   183    82    81    1
   184    82    83    1
   185    52    53    1
   186    52    51    1
   187    54    53    2
   188    84    83    2
