@<TRIPOS>MOLECULE
tmp/1j99A00.pdb
 199 201 0 0 0
SMALL
GASTEIGER

@<TRIPOS>ATOM
      1  N         17.4650  -48.1000   25.0400 N.3    13  PRO13      -0.2102
      2  CA        16.6350  -48.1490   23.8320 C.3    13  PRO13       0.1504
      3  C         17.4590  -47.7920   22.5910 C.2    13  PRO13       0.2576
      4  O         18.4660  -47.0850   22.6810 O.2    13  PRO13      -0.2718
      5  CB        15.5490  -47.1150   24.1220 C.3    13  PRO13       0.0282
      6  CG        15.4470  -47.1640   25.6340 C.3    13  PRO13       0.0208
      7  CD        16.8830  -47.1760   26.0270 C.3    13  PRO13       0.0893
      8  N         17.0210  -48.2770   21.4340 N.am   14  THR14      -0.1939
      9  CA        17.7200  -48.0490   20.1680 C.3    14  THR14       0.2028
     10  C         17.4010  -46.6890   19.5280 C.2    14  THR14       0.2642
     11  O         18.2330  -46.1230   18.8390 O.2    14  THR14      -0.2714
     12  CB        17.3470  -49.1550   19.1370 C.3    14  THR14       0.1808
     13  OG1       17.7370  -50.4430   19.6340 O.3    14  THR14      -0.2208
     14  CG2       18.0170  -48.8910   17.8040 C.3    14  THR14       0.0379
     15  N         16.1910  -46.1790   19.7300 N.am   15  MET15      -0.1976
     16  CA        15.8150  -44.9040   19.1320 C.3    15  MET15       0.1605
     17  C         15.7460  -43.7890   20.1730 C.2    15  MET15       0.2287
     18  O         14.9760  -43.8890   21.1280 O.2    15  MET15      -0.2864
     19  CB        14.4300  -45.0040   18.4580 C.3    15  MET15       0.0413
     20  CG        14.2720  -46.0850   17.4140 C.3    15  MET15       0.0598
     21  SD        15.0580  -45.7340   15.7990 S.3    15  MET15      -0.1393
     22  CE        16.3060  -46.9540   15.7280 C.3    15  MET15       0.0692
     23  N         18.6530  -42.3530   21.7690 N.3    17  PHE17      -0.1241
     24  CA        19.8550  -42.3690   22.6140 C.3    17  PHE17       0.1605
     25  C         21.1700  -42.5570   21.8570 C.2    17  PHE17       0.2264
     26  O         21.2140  -43.3110   20.8850 O.2    17  PHE17      -0.2867
     27  CB        19.7660  -43.5250   23.6350 C.3    17  PHE17       0.0534
     28  CG        18.6930  -43.3400   24.6770 C.ar   17  PHE17      -0.0203
     29  CD1       17.3630  -43.5700   24.3680 C.ar   17  PHE17      -0.0042
     30  CD2       19.0220  -42.9140   25.9470 C.ar   17  PHE17      -0.0042
     31  CE1       16.3750  -43.3790   25.3070 C.ar   17  PHE17      -0.0003
     32  CE2       18.0390  -42.7130   26.9070 C.ar   17  PHE17      -0.0003
     33  CZ        16.7120  -42.9430   26.5900 C.ar   17  PHE17      -0.0000
     34  N         12.3590  -48.0210   35.4770 N.3    42  PRO42      -0.2102
     35  CA        11.1510  -47.9120   34.6240 C.3    42  PRO42       0.1504
     36  C          9.8910  -48.7240   35.0060 C.2    42  PRO42       0.2575
     37  O         10.0020  -49.8790   35.4030 O.2    42  PRO42      -0.2718
     38  CB        11.6740  -48.2560   33.1940 C.3    42  PRO42       0.0282
     39  CG        13.0160  -48.9310   33.3890 C.3    42  PRO42       0.0208
     40  CD        13.5770  -48.2530   34.6610 C.3    42  PRO42       0.0893
     41  N          8.7190  -48.0930   34.8270 N.am   43  LYS43      -0.1980
     42  CA         7.3910  -48.6510   35.0880 C.3    43  LYS43       0.1596
     43  C          7.0430  -48.7240   36.5810 C.2    43  LYS43       0.2287
     44  O          6.3080  -49.6160   37.0330 O.2    43  LYS43      -0.2864
     45  CB         7.2290  -50.0420   34.4070 C.3    43  LYS43       0.0298
     46  CG         7.5400  -50.0480   32.8980 C.3    43  LYS43       0.0038
     47  CD         6.7570  -48.8920   32.2520 C.3    43  LYS43       0.0206
     48  CE         6.7830  -48.8380   30.7540 C.3    43  LYS43       0.1093
     49  NZ         5.8970  -47.7000   30.2640 N.3    43  LYS43      -0.1314
     50  N          6.4250  -43.1390   37.4810 N.3    46  THR46      -0.1218
     51  CA         6.9620  -41.8240   37.0820 C.3    46  THR46       0.1862
     52  C          5.9040  -40.7820   36.5900 C.2    46  THR46       0.2287
     53  O          5.9260  -39.6230   37.0070 O.2    46  THR46      -0.2866
     54  CB         7.9910  -41.9180   35.8900 C.3    46  THR46       0.1770
     55  OG1        8.8540  -43.0110   36.0810 O.3    46  THR46      -0.2211
     56  CG2        8.8540  -40.6600   35.8270 C.3    46  THR46       0.0375
     57  N          6.9430  -35.7490   28.3490 N.3    71  TRP71      -0.1241
     58  CA         8.3650  -35.5940   27.9780 C.3    71  TRP71       0.1605
     59  C          8.7780  -34.1350   27.6920 C.2    71  TRP71       0.2264
     60  O          9.9380  -33.8650   27.4320 O.2    71  TRP71      -0.2867
     61  CB         8.7820  -36.5100   26.7960 C.3    71  TRP71       0.0550
     62  CG         7.9570  -36.4000   25.5580 C.ar   71  TRP71       0.0003
     63  CD1        8.0390  -35.4310   24.5920 C.ar   71  TRP71       0.0946
     64  CD2        6.8950  -37.2750   25.1630 C.ar   71  TRP71       0.0152
     65  NE1        7.0910  -35.6500   23.6210 N.ar   71  TRP71      -0.2442
     66  CE2        6.3740  -36.7770   23.9430 C.ar   71  TRP71       0.0810
     67  CE3        6.3270  -38.4330   25.7220 C.ar   71  TRP71       0.0012
     68  CZ2        5.3090  -37.3990   23.2680 C.ar   71  TRP71       0.0191
     69  CZ3        5.2630  -39.0550   25.0490 C.ar   71  TRP71       0.0001
     70  CH2        4.7700  -38.5310   23.8340 C.ar   71  TRP71       0.0015
     71  N         13.5730  -36.4650   30.2240 N.3    76  TRP76      -0.1241
     72  CA        14.5560  -37.4770   30.6670 C.3    76  TRP76       0.1605
     73  C         15.9550  -36.9560   30.2880 C.2    76  TRP76       0.2264
     74  O         16.3180  -36.9150   29.0980 O.2    76  TRP76      -0.2867
     75  CB        14.2640  -38.8300   29.9770 C.3    76  TRP76       0.0550
     76  CG        13.2250  -39.6870   30.6680 C.ar   76  TRP76       0.0003
     77  CD1       13.4570  -40.6920   31.5910 C.ar   76  TRP76       0.0946
     78  CD2       11.8020  -39.5770   30.5590 C.ar   76  TRP76       0.0152
     79  NE1       12.2730  -41.1940   32.0500 N.ar   76  TRP76      -0.2442
     80  CE2       11.2400  -40.5350   31.4410 C.ar   76  TRP76       0.0810
     81  CE3       10.9480  -38.7660   29.8060 C.ar   76  TRP76       0.0012
     82  CZ2        9.8570  -40.6990   31.5950 C.ar   76  TRP76       0.0191
     83  CZ3        9.5760  -38.9250   29.9560 C.ar   76  TRP76       0.0001
     84  CH2        9.0400  -39.8930   30.8530 C.ar   76  TRP76       0.0015
     85  N         16.0500  -42.4350   34.8550 N.3    98  HIS98      -0.1241
     86  CA        15.9420  -43.8530   35.2110 C.3    98  HIS98       0.1621
     87  C         17.3870  -44.4250   35.4590 C.2    98  HIS98       0.2264
     88  O         17.5690  -45.6360   35.7570 O.2    98  HIS98      -0.2867
     89  CB        15.3010  -44.7200   34.0900 C.3    98  HIS98       0.0745
     90  CG        13.8460  -44.4490   33.7960 C.ar   98  HIS98       0.0817
     91  ND1       12.8790  -44.3140   34.7710 N.ar   98  HIS98      -0.2268
     92  CD2       13.1890  -44.3450   32.6050 C.ar   98  HIS98       0.1154
     93  CE1       11.6920  -44.1340   34.2030 C.ar   98  HIS98       0.1986
     94  NE2       11.8540  -44.1470   32.8900 N.ar   98  HIS98      -0.2212
     95  N          4.4950  -53.6500   27.8990 N.3   132  PHE132     -0.1227
     96  CA         4.8580  -52.3850   27.2720 C.3   132  PHE132      0.1736
     97  C          6.0000  -52.5430   26.2840 C.2   132  PHE132      0.2595
     98  O          5.8810  -52.1330   25.1480 O.2   132  PHE132     -0.2718
     99  CB         5.2490  -51.3350   28.3170 C.3   132  PHE132      0.0547
    100  CG         5.4190  -49.9290   27.7640 C.ar  132  PHE132     -0.0202
    101  CD1        4.2980  -49.0910   27.5610 C.ar  132  PHE132     -0.0042
    102  CD2        6.6890  -49.4250   27.4960 C.ar  132  PHE132     -0.0042
    103  CE1        4.4520  -47.7730   27.1110 C.ar  132  PHE132     -0.0003
    104  CE2        6.8600  -48.0990   27.0370 C.ar  132  PHE132     -0.0003
    105  CZ         5.7410  -47.2680   26.8480 C.ar  132  PHE132     -0.0000
    106  N          7.1000  -53.1640   26.6910 N.am  133  TRP133     -0.1976
    107  CA         8.2350  -53.2640   25.7710 C.3   133  TRP133      0.1640
    108  C          8.0490  -54.2110   24.5990 C.2   133  TRP133      0.2290
    109  O          8.6550  -53.9810   23.5540 O.2   133  TRP133     -0.2864
    110  CB         9.5850  -53.5940   26.5010 C.3   133  TRP133      0.0576
    111  CG         9.9610  -52.5790   27.6200 C.ar  133  TRP133      0.0006
    112  CD1       10.0970  -52.8490   28.9720 C.ar  133  TRP133      0.0946
    113  CD2       10.2640  -51.1770   27.4770 C.ar  133  TRP133      0.0152
    114  NE1       10.4650  -51.7130   29.6590 N.ar  133  TRP133     -0.2442
    115  CE2       10.5750  -50.6770   28.7700 C.ar  133  TRP133      0.0810
    116  CE3       10.3050  -50.2910   26.3850 C.ar  133  TRP133      0.0012
    117  CZ2       10.9190  -49.3300   28.9890 C.ar  133  TRP133      0.0191
    118  CZ3       10.6440  -48.9620   26.6040 C.ar  133  TRP133      0.0001
    119  CH2       10.9460  -48.4930   27.8910 C.ar  133  TRP133      0.0015
    120  N          6.7900  -52.2860   21.3120 N.3   136  MET136     -0.1230
    121  CA         7.5780  -51.1970   20.7070 C.3   136  MET136      0.1702
    122  C          8.4820  -51.6780   19.5310 C.2   136  MET136      0.2592
    123  O          9.2210  -52.6450   19.6580 O.2   136  MET136     -0.2718
    124  CB         8.4690  -50.5420   21.7710 C.3   136  MET136      0.0401
    125  CG         7.6980  -49.9260   22.9240 C.3   136  MET136      0.0596
    126  SD         6.8180  -48.4370   22.4220 S.3   136  MET136     -0.1393
    127  CE         5.0810  -48.9910   22.4030 C.3   136  MET136      0.0692
    128  N          8.4310  -50.9920   18.3960 N.am  137  LYS137     -0.1966
    129  CA         9.2580  -51.3820   17.2520 C.3   137  LYS137      0.1728
    130  C         10.7320  -51.1010   17.5160 C.2   137  LYS137      0.2616
    131  O         11.0850  -50.2750   18.3670 O.2   137  LYS137     -0.2715
    132  CB         8.8390  -50.5990   15.9880 C.3   137  LYS137      0.0311
    133  CG         7.4800  -51.0030   15.3880 C.3   137  LYS137      0.0038
    134  CD         7.0840  -50.1170   14.2010 C.3   137  LYS137      0.0206
    135  CE         5.6990  -50.5100   13.6930 C.3   137  LYS137      0.1093
    136  NZ         5.2410  -49.5940   12.6220 N.3   137  LYS137     -0.1314
    137  N         11.5820  -51.7830   16.7590 N.am  138  PHE138     -0.1960
    138  CA        13.0340  -51.6230   16.8320 C.3   138  PHE138      0.1771
    139  C         13.6800  -51.9930   18.1600 C.2   138  PHE138      0.2619
    140  O         14.8240  -51.6340   18.4170 O.2   138  PHE138     -0.2715
    141  CB        13.4350  -50.1930   16.4250 C.3   138  PHE138      0.0574
    142  CG        12.8270  -49.7550   15.1020 C.ar  138  PHE138     -0.0200
    143  CD1       12.9210  -50.5740   13.9650 C.ar  138  PHE138     -0.0042
    144  CD2       12.1010  -48.5730   15.0080 C.ar  138  PHE138     -0.0042
    145  CE1       12.2890  -50.2270   12.7440 C.ar  138  PHE138     -0.0003
    146  CE2       11.4620  -48.2190   13.7930 C.ar  138  PHE138     -0.0003
    147  CZ        11.5630  -49.0640   12.6590 C.ar  138  PHE138     -0.0000
    148  N         12.9570  -52.7420   18.9880 N.am  139  LEU139     -0.1977
    149  CA        13.4760  -53.1810   20.2910 C.3   139  LEU139      0.1596
    150  C         13.4520  -54.7130   20.3840 C.2   139  LEU139      0.2287
    151  O         12.4420  -55.3400   20.0500 O.2   139  LEU139     -0.2864
    152  CB        12.5980  -52.5620   21.3800 C.3   139  LEU139      0.0297
    153  CG        13.1790  -52.4840   22.7800 C.3   139  LEU139      0.0022
    154  CD1       12.6200  -51.2420   23.4880 C.3   139  LEU139      0.0001
    155  CD2       12.8770  -53.7630   23.5180 C.3   139  LEU139      0.0001
    156  N         17.9060  -50.8060   31.1410 N.3   159  TYR159     -0.1241
    157  CA        18.3490  -50.1160   32.3690 C.3   159  TYR159      0.1605
    158  C         18.9350  -51.0200   33.4870 C.2   159  TYR159      0.2264
    159  O         19.1620  -50.5440   34.6080 O.2   159  TYR159     -0.2867
    160  CB        17.1940  -49.2350   32.9170 C.3   159  TYR159      0.0534
    161  CG        16.9710  -47.9850   32.1210 C.ar  159  TYR159     -0.0201
    162  CD1       17.6940  -46.8320   32.4280 C.ar  159  TYR159     -0.0009
    163  CD2       16.0570  -47.9310   31.0790 C.ar  159  TYR159     -0.0009
    164  CE1       17.5160  -45.6640   31.7400 C.ar  159  TYR159      0.0417
    165  CE2       15.8680  -46.7300   30.3600 C.ar  159  TYR159      0.0417
    166  CZ        16.6110  -45.6050   30.7200 C.ar  159  TYR159      0.1957
    167  OH        16.4410  -44.3740   30.1280 O.3   159  TYR159     -0.2866
    168  N          1.0370  -42.1590   27.8400 N.3   230  TYR230     -0.1241
    169  CA         1.8180  -42.6740   26.7160 C.3   230  TYR230      0.1605
    170  C          1.0340  -42.8860   25.4040 C.2   230  TYR230      0.2264
    171  O          1.6240  -43.2280   24.3660 O.2   230  TYR230     -0.2867
    172  CB         2.5260  -43.9930   27.1180 C.3   230  TYR230      0.0534
    173  CG         3.5900  -43.7650   28.1730 C.ar  230  TYR230     -0.0201
    174  CD1        4.6240  -42.8600   27.9280 C.ar  230  TYR230     -0.0009
    175  CD2        3.4820  -44.3250   29.4450 C.ar  230  TYR230     -0.0009
    176  CE1        5.5080  -42.4930   28.9060 C.ar  230  TYR230      0.0417
    177  CE2        4.3730  -43.9700   30.4480 C.ar  230  TYR230      0.0417
    178  CZ         5.3970  -43.0350   30.1720 C.ar  230  TYR230      0.1957
    179  OH         6.3070  -42.6150   31.1420 O.3   230  TYR230     -0.2866
    180  N          2.1310  -41.6060   21.5740 N.3   233  LEU233     -0.1245
    181  CA         3.2210  -42.1270   20.7280 C.3   233  LEU233      0.1561
    182  C          2.6770  -42.4610   19.3260 C.2   233  LEU233      0.2260
    183  O          1.6730  -43.1850   19.1920 O.2   233  LEU233     -0.2867
    184  CB         3.8610  -43.3940   21.3360 C.3   233  LEU233      0.0270
    185  CG         4.7610  -43.2280   22.5580 C.3   233  LEU233      0.0019
    186  CD1        5.4610  -44.5500   22.8930 C.3   233  LEU233      0.0001
    187  CD2        5.7860  -42.1510   22.2660 C.3   233  LEU233      0.0001
    188  N          6.5200  -45.5240   16.0010 N.3   237  TYR237     -0.1241
    189  CA         7.3230  -46.1340   17.0640 C.3   237  TYR237      0.1605
    190  C          6.6200  -47.3150   17.7670 C.2   237  TYR237      0.2264
    191  O          7.2560  -48.0720   18.5040 O.2   237  TYR237     -0.2867
    192  CB         7.6880  -45.0790   18.1060 C.3   237  TYR237      0.0534
    193  CG         8.5260  -43.9400   17.5760 C.ar  237  TYR237     -0.0201
    194  CD1        7.9640  -42.9240   16.7930 C.ar  237  TYR237     -0.0009
    195  CD2        9.8940  -43.8820   17.8440 C.ar  237  TYR237     -0.0009
    196  CE1        8.7520  -41.8820   16.2900 C.ar  237  TYR237      0.0417
    197  CE2       10.6900  -42.8510   17.3510 C.ar  237  TYR237      0.0417
    198  CZ        10.1190  -41.8560   16.5760 C.ar  237  TYR237      0.1957
    199  OH        10.9250  -40.8460   16.0980 O.3   237  TYR237     -0.2866
@<TRIPOS>BOND
     1   136   135    1
     2   147   145   ar
     3   147   146   ar
     4   145   143   ar
     5   135   134    1
     6   146   144   ar
     7   143   142   ar
     8   134   133    1
     9   144   142   ar
    10   142   141    1
    11   133   132    1
    12    22    21    1
    13    21    20    1
    14   132   129    1
    15   188   189    1
    16   199   198    1
    17   196   198   ar
    18   196   194   ar
    19   141   138    1
    20   198   197   ar
    21   137   138    1
    22   137   130   am
    23   194   193   ar
    24   138   139    1
    25   189   190    1
    26   189   192    1
    27   129   130    1
    28   129   128    1
    29   197   195   ar
    30    20    19    1
    31   130   131    2
    32   193   195   ar
    33   193   192    1
    34   190   191    2
    35    14    12    1
    36   139   140    2
    37   139   148   am
    38   128   122   am
    39    19    16    1
    40    11    10    2
    41   148   149    1
    42    16    15    1
    43    16    17    1
    44    12    13    1
    45    12     9    1
    46   183   182    2
    47   182   181    1
    48    10    15   am
    49    10     9    1
    50   122   123    2
    51   122   121    1
    52   151   150    2
    53     9     8    1
    54    17    18    2
    55   149   150    1
    56   149   152    1
    57   121   120    1
    58   121   124    1
    59   181   184    1
    60   181   180    1
    61    26    25    2
    62   184   185    1
    63   152   153    1
    64     8     3   am
    65    23    24    1
    66   124   125    1
    67    25    24    1
    68   187   185    1
    69   127   126    1
    70   126   125    1
    71   185   186    1
    72     3     4    2
    73     3     2    1
    74    24    27    1
    75   153   154    1
    76   153   155    1
    77    68    70   ar
    78    68    66   ar
    79   109   108    2
    80    65    66   ar
    81    65    63   ar
    82    27    28    1
    83     2     5    1
    84     2     1    1
    85    70    69   ar
    86    66    64   ar
    87     5     6    1
    88   171   170    2
    89    29    28   ar
    90    29    31   ar
    91    63    62   ar
    92   108   107    1
    93    28    30   ar
    94     1     7    1
    95    69    67   ar
    96    98    97    2
    97    64    62   ar
    98    64    67   ar
    99    31    33   ar
   100   170   169    1
   101    62    61    1
   102     6     7    1
   103   107   110    1
   104   107   106    1
   105    30    32   ar
   106    97   106   am
   107    97    96    1
   108   116   118   ar
   109   116   113   ar
   110   110   111    1
   111    33    32   ar
   112   118   119   ar
   113   169   172    1
   114   169   168    1
   115    61    58    1
   116   105   104   ar
   117   105   103   ar
   118   104   102   ar
   119   103   101   ar
   120   172   173    1
   121    96    95    1
   122    96    99    1
   123    60    59    2
   124   113   111   ar
   125   113   115   ar
   126   102   100   ar
   127   101   100   ar
   128   111   112   ar
   129    59    58    1
   130   100    99    1
   131   119   117   ar
   132   174   173   ar
   133   174   176   ar
   134    58    57    1
   135   173   175   ar
   136   115   117   ar
   137   115   114   ar
   138   176   178   ar
   139   112   114   ar
   140    74    73    2
   141   175   177   ar
   142    81    83   ar
   143    81    78   ar
   144    83    84   ar
   145    75    72    1
   146    75    76    1
   147   167   166    1
   148   178   177   ar
   149   178   179    1
   150    71    72    1
   151    49    48    1
   152    73    72    1
   153   165   166   ar
   154   165   163   ar
   155    78    76   ar
   156    78    80   ar
   157    76    77   ar
   158   166   164   ar
   159    48    47    1
   160    84    82   ar
   161   163   161   ar
   162   156   157    1
   163    80    82   ar
   164    80    79   ar
   165    77    79   ar
   166   164   162   ar
   167   161   162   ar
   168   161   160    1
   169    47    46    1
   170   157   160    1
   171   157   158    1
   172    92    94   ar
   173    92    90   ar
   174    94    93   ar
   175    46    45    1
   176    38    39    1
   177    38    35    1
   178    39    40    1
   179   158   159    2
   180    90    89    1
   181    90    91   ar
   182    89    86    1
   183    93    91   ar
   184    45    42    1
   185    35    36    1
   186    35    34    1
   187    40    34    1
   188    41    36   am
   189    41    42    1
   190    85    86    1
   191    36    37    2
   192    42    43    1
   193    86    87    1
   194    87    88    2
   195    56    54    1
   196    54    55    1
   197    54    51    1
   198    43    44    2
   199    52    53    2
   200    52    51    1
   201    51    50    1
