@<TRIPOS>MOLECULE
tmp/1ja1A01.pdb
 191 186 0 0 0
SMALL
GASTEIGER

@<TRIPOS>ATOM
      1  N          8.9250  -11.6000   38.3680 N.3    24  SER24      -0.1202
      2  CA         9.6780  -10.7600   37.4500 C.3    24  SER24       0.2020
      3  C          9.0930  -10.6990   36.0430 C.2    24  SER24       0.2619
      4  O          8.5370  -11.6760   35.5430 O.2    24  SER24      -0.2717
      5  CB        11.1210  -11.2680   37.3830 C.3    24  SER24       0.2103
      6  OG        11.9200  -10.4720   36.5300 O.3    24  SER24      -0.2182
      7  N          9.2150   -9.5390   35.4090 N.am   25  GLN25      -0.1965
      8  CA         8.7190   -9.3840   34.0580 C.3    25  GLN25       0.1733
      9  C          9.9100   -9.1750   33.1360 C.2    25  GLN25       0.2617
     10  O         10.0280   -9.8390   32.1090 O.2    25  GLN25      -0.2715
     11  CB         7.7410   -8.2140   33.9600 C.3    25  GLN25       0.0408
     12  CG         6.8890   -8.2940   32.7140 C.3    25  GLN25       0.0908
     13  CD         5.4120   -8.1900   33.0070 C.2    25  GLN25       0.2608
     14  OE1        4.8750   -8.9010   33.8580 O.2    25  GLN25      -0.2717
     15  NE2        4.7410   -7.3070   32.2930 N.am   25  GLN25      -0.0878
     16  N         10.8170   -8.2820   33.5180 N.am   26  THR26      -0.1951
     17  CA        11.9840   -8.0370   32.6860 C.3    26  THR26       0.1897
     18  C         13.2730   -8.5820   33.2960 C.2    26  THR26       0.2313
     19  O         14.3660   -8.1190   32.9830 O.2    26  THR26      -0.2863
     20  CB        12.1260   -6.5250   32.3310 C.3    26  THR26       0.1794
     21  OG1       12.0740   -5.7260   33.5180 O.3    26  THR26      -0.2208
     22  CG2       10.9960   -6.0990   31.3980 C.3    26  THR26       0.0378
     23  N         14.5700   -8.4390   36.4140 N.3    28  THR28      -0.1203
     24  CA        15.2060   -7.7720   37.5440 C.3    28  THR28       0.1994
     25  C         15.0140   -8.5390   38.8570 C.2    28  THR28       0.2617
     26  O         15.9780   -8.7850   39.5830 O.2    28  THR28      -0.2717
     27  CB        14.6650   -6.3410   37.6940 C.3    28  THR28       0.1784
     28  OG1       14.7960   -5.6530   36.4410 O.3    28  THR28      -0.2211
     29  CG2       15.4420   -5.5850   38.7570 C.3    28  THR28       0.0376
     30  N         13.7740   -8.9200   39.1560 N.am   29  ALA29      -0.1979
     31  CA        13.4750   -9.6670   40.3790 C.3    29  ALA29       0.1597
     32  C         14.0360  -11.0740   40.2940 C.2    29  ALA29       0.2287
     33  O         14.4690  -11.6430   41.2960 O.2    29  ALA29      -0.2864
     34  CB        11.9700   -9.7330   40.6090 C.3    29  ALA29       0.0319
     35  N          8.3950   -7.7890   41.8630 N.3    76  ALA76      -0.1231
     36  CA         8.3220   -6.5420   41.1130 C.3    76  ALA76       0.1694
     37  C          6.8550   -6.2850   40.7740 C.2    76  ALA76       0.2593
     38  O          6.0430   -7.2110   40.7070 O.2    76  ALA76      -0.2718
     39  CB         9.1240   -6.6440   39.8440 C.3    76  ALA76       0.0304
     40  N          6.5240   -5.0210   40.5530 N.am   77  THR77      -0.1939
     41  CA         5.1620   -4.6280   40.2300 C.3    77  THR77       0.2028
     42  C          5.0470   -4.1880   38.7750 C.2    77  THR77       0.2642
     43  O          5.9870   -3.6280   38.2110 O.2    77  THR77      -0.2714
     44  CB         4.7070   -3.4900   41.1530 C.3    77  THR77       0.1808
     45  OG1        4.6630   -3.9720   42.5020 O.3    77  THR77      -0.2208
     46  CG2        3.3400   -2.9900   40.7490 C.3    77  THR77       0.0379
     47  N          3.8870   -4.4410   38.1750 N.am   78  TYR78      -0.1959
     48  CA         3.6520   -4.0870   36.7820 C.3    78  TYR78       0.1771
     49  C          2.2640   -3.4750   36.6070 C.2    78  TYR78       0.2620
     50  O          1.5400   -3.2680   37.5820 O.2    78  TYR78      -0.2715
     51  CB         3.7720   -5.3400   35.9150 C.3    78  TYR78       0.0574
     52  CG         4.0870   -5.0660   34.4670 C.ar   78  TYR78      -0.0198
     53  CD1        5.3720   -4.7030   34.0690 C.ar   78  TYR78      -0.0009
     54  CD2        3.0990   -5.1680   33.4900 C.ar   78  TYR78      -0.0009
     55  CE1        5.6620   -4.4500   32.7260 C.ar   78  TYR78       0.0417
     56  CE2        3.3750   -4.9110   32.1460 C.ar   78  TYR78       0.0417
     57  CZ         4.6590   -4.5550   31.7710 C.ar   78  TYR78       0.1957
     58  OH         4.9440   -4.3020   30.4460 O.3    78  TYR78      -0.2866
     59  N          1.9030   -3.1920   35.3590 N.am   79  GLY79      -0.1940
     60  CA         0.6020   -2.6180   35.0620 C.3    79  GLY79       0.2014
     61  C          0.1660   -1.5180   36.0100 C.2    79  GLY79       0.2639
     62  O          0.8540   -0.5080   36.1660 O.2    79  GLY79      -0.2714
     63  N         -0.9840   -1.7190   36.6470 N.am   80  GLU80      -0.1963
     64  CA        -1.5380   -0.7410   37.5830 C.3    80  GLU80       0.1733
     65  C         -1.4540   -1.2940   39.0010 C.2    80  GLU80       0.2616
     66  O         -2.4780   -1.5210   39.6570 O.2    80  GLU80      -0.2715
     67  CB        -3.0010   -0.4440   37.2250 C.3    80  GLU80       0.0429
     68  CG        -3.2300    0.0430   35.7920 C.3    80  GLU80       0.1163
     69  CD        -2.8150   -0.9760   34.7440 C.2    80  GLU80       0.3649
     70  OE1       -1.9060   -0.6690   33.9440 O.co2  80  GLU80      -0.2457
     71  OE2       -3.3950   -2.0840   34.7200 O.co2  80  GLU80      -0.2457
     72  N         -0.2310   -1.5020   39.4820 N.am   81  GLY81      -0.1955
     73  CA        -0.0630   -2.0730   40.7960 C.3    81  GLY81       0.1869
     74  C         -0.4480   -3.5270   40.7710 C.2    81  GLY81       0.2309
     75  O         -0.8180   -4.0960   41.8340 O.2    81  GLY81      -0.2863
     76  N          3.3140   -9.4290   38.6100 N.3    84  THR84      -0.1218
     77  CA         3.8690   -9.7420   37.3120 C.3    84  THR84       0.1862
     78  C          3.0550  -10.9040   36.7380 C.2    84  THR84       0.2287
     79  O          2.4520  -11.6640   37.4910 O.2    84  THR84      -0.2866
     80  CB         5.3310  -10.1590   37.4240 C.3    84  THR84       0.1770
     81  OG1        5.4460  -11.2670   38.3230 O.3    84  THR84      -0.2211
     82  CG2        6.1800   -9.0050   37.9500 C.3    84  THR84       0.0375
     83  N         10.4240   -4.7490   44.1550 N.3   111  LEU111     -0.1231
     84  CA        11.0720   -3.9530   43.1060 C.3   111  LEU111      0.1693
     85  C         10.0190   -2.9220   42.8090 C.2   111  LEU111      0.2593
     86  O          9.1890   -3.0580   41.9170 O.2   111  LEU111     -0.2718
     87  CB        11.4030   -4.8430   41.9000 C.3   111  LEU111      0.0284
     88  CG        12.6750   -5.7190   42.0900 C.3   111  LEU111      0.0019
     89  CD1       12.4260   -6.8200   43.1280 C.3   111  LEU111      0.0001
     90  CD2       13.0960   -6.3570   40.7880 C.3   111  LEU111      0.0001
     91  N         10.0120   -1.8920   43.6330 N.am  112  GLY112     -0.1942
     92  CA         8.9780   -0.9150   43.4310 C.3   112  GLY112      0.2014
     93  C          9.5240    0.4090   42.9920 C.2   112  GLY112      0.2638
     94  O         10.7420    0.5930   42.6690 O.2   112  GLY112     -0.2714
     95  N          8.6380    1.4000   42.9250 N.am  113  ASN113     -0.1972
     96  CA         9.1870    2.6610   42.4680 C.3   113  ASN113      0.1688
     97  C          8.4100    3.9230   42.7110 C.2   113  ASN113      0.2292
     98  O          7.3540    3.8700   43.3010 O.2   113  ASN113     -0.2864
     99  CB         9.4560    2.5710   40.9940 C.3   113  ASN113      0.1181
    100  CG        10.2520    3.7470   40.4640 C.2   113  ASN113      0.2629
    101  OD1       10.5650    4.7210   41.1610 O.2   113  ASN113     -0.2716
    102  ND2       10.5860    3.6470   39.1900 N.am  113  ASN113     -0.0877
    103  N          5.2870    5.9230   39.6430 N.3   116  TYR116     -0.1241
    104  CA         4.0370    5.1730   39.4830 C.3   116  TYR116      0.1605
    105  C          3.1860    5.3390   40.7460 C.2   116  TYR116      0.2264
    106  O          3.6860    5.5150   41.8640 O.2   116  TYR116     -0.2867
    107  CB         4.3490    3.6880   39.2330 C.3   116  TYR116      0.0534
    108  CG         4.9790    3.4060   37.8670 C.ar  116  TYR116     -0.0201
    109  CD1        4.1800    3.1500   36.7500 C.ar  116  TYR116     -0.0009
    110  CD2        6.3730    3.3950   37.6890 C.ar  116  TYR116     -0.0009
    111  CE1        4.7390    2.8840   35.4970 C.ar  116  TYR116      0.0417
    112  CE2        6.9430    3.1300   36.4290 C.ar  116  TYR116      0.0417
    113  CZ         6.1150    2.8750   35.3420 C.ar  116  TYR116      0.1957
    114  OH         6.6580    2.6100   34.1020 O.3   116  TYR116     -0.2866
    115  N          0.8220    3.2130   42.6280 N.3   118  HIS118     -0.1226
    116  CA         1.0230    2.2180   43.6930 C.3   118  HIS118      0.1752
    117  C          2.3960    1.6490   43.5180 C.2   118  HIS118      0.2596
    118  O          2.6220    0.7070   42.7940 O.2   118  HIS118     -0.2718
    119  CB        -0.0210    1.1110   43.6200 C.3   118  HIS118      0.0759
    120  CG        -1.4330    1.5800   43.3710 C.ar  118  HIS118      0.0818
    121  ND1       -2.2660    2.0220   44.3710 N.ar  118  HIS118     -0.2268
    122  CD2       -2.1640    1.5850   42.2420 C.ar  118  HIS118      0.1154
    123  CE1       -3.4570    2.2880   43.8730 C.ar  118  HIS118      0.1986
    124  NE2       -3.4210    2.0290   42.5680 N.ar  118  HIS118     -0.2212
    125  N          3.3100    2.2890   44.2010 N.am  119  PHE119     -0.1962
    126  CA         4.7170    1.9740   44.1160 C.3   119  PHE119      0.1771
    127  C          5.0190    0.7630   44.9200 C.2   119  PHE119      0.2619
    128  O          4.7840    0.8220   46.0860 O.2   119  PHE119     -0.2715
    129  CB         5.4830    3.2060   44.6260 C.3   119  PHE119      0.0574
    130  CG         6.5590    2.9280   45.6340 C.ar  119  PHE119     -0.0200
    131  CD1        7.7910    2.4590   45.2190 C.ar  119  PHE119     -0.0042
    132  CD2        6.3880    3.2290   46.9800 C.ar  119  PHE119     -0.0042
    133  CE1        8.8570    2.2910   46.0910 C.ar  119  PHE119     -0.0003
    134  CE2        7.4810    3.0520   47.8670 C.ar  119  PHE119     -0.0003
    135  CZ         8.7070    2.5830   47.3940 C.ar  119  PHE119     -0.0000
    136  N          5.4910   -0.3330   44.3320 N.am  120  ASN120     -0.1972
    137  CA         5.7660   -1.5350   45.1360 C.3   120  ASN120      0.1688
    138  C          4.5070   -2.1880   45.7200 C.2   120  ASN120      0.2292
    139  O          4.5580   -2.7970   46.7900 O.2   120  ASN120     -0.2864
    140  CB         6.7090   -1.2140   46.3030 C.3   120  ASN120      0.1181
    141  CG         8.1020   -1.7750   46.0930 C.2   120  ASN120      0.2629
    142  OD1        9.0690   -1.3290   46.7090 O.2   120  ASN120     -0.2716
    143  ND2        8.2070   -2.7690   45.2140 N.am  120  ASN120     -0.0877
    144  N         13.4880    1.7120   41.1960 N.3   146  ASP146     -0.1239
    145  CA        14.1580    1.7130   39.8930 C.3   146  ASP146      0.1674
    146  C         14.3410    3.1290   39.3170 C.2   146  ASP146      0.2266
    147  O         15.0120    3.3200   38.2970 O.2   146  ASP146     -0.2867
    148  CB        13.3410    0.8700   38.9080 C.3   146  ASP146      0.1410
    149  CG        14.1300    0.4700   37.6790 C.2   146  ASP146      0.3668
    150  OD1       15.1450    1.1270   37.3600 O.co2 146  ASP146     -0.2456
    151  OD2       13.7190   -0.5060   37.0220 O.co2 146  ASP146     -0.2456
    152  N         17.9370    0.6710   42.0190 N.3   150  LEU150     -0.1245
    153  CA        17.4590   -0.5760   42.5990 C.3   150  LEU150      0.1561
    154  C         18.5970   -1.4450   43.1080 C.2   150  LEU150      0.2260
    155  O         18.5510   -1.9380   44.2340 O.2   150  LEU150     -0.2867
    156  CB        16.6600   -1.3370   41.5420 C.3   150  LEU150      0.0270
    157  CG        15.8110   -2.5280   41.9760 C.3   150  LEU150      0.0019
    158  CD1       14.9840   -2.1550   43.1900 C.3   150  LEU150      0.0001
    159  CD2       14.9170   -2.9390   40.8150 C.3   150  LEU150      0.0001
    160  N          1.6400   -8.9570   23.0790 N.3   452  ARG452     -0.1245
    161  CA         1.2580   -9.0200   24.4820 C.3   452  ARG452      0.1563
    162  C          0.0340   -8.1410   24.6270 C.2   452  ARG452      0.2260
    163  O          0.0750   -6.9460   24.3340 O.2   452  ARG452     -0.2867
    164  CB         2.3770   -8.5080   25.3920 C.3   452  ARG452      0.0307
    165  CG         2.0370   -8.6040   26.8780 C.3   452  ARG452      0.0489
    166  CD         3.1620   -8.0470   27.7420 C.3   452  ARG452      0.2205
    167  NE         3.3200   -6.6060   27.5620 N.pl3 452  ARG452     -0.0865
    168  CZ         4.3200   -5.8870   28.0640 C.cat 452  ARG452      0.5346
    169  NH1        5.2680   -6.4710   28.7870 N.pl3 452  ARG452      0.1354
    170  NH2        4.3700   -4.5800   27.8440 N.pl3 452  ARG452      0.1354
    171  N          2.5920    4.3270   28.9090 N.3   614  VAL614     -0.1231
    172  CA         3.8360    5.0810   28.9780 C.3   614  VAL614      0.1692
    173  C          5.0480    4.2050   29.2760 C.2   614  VAL614      0.2592
    174  O          4.9190    3.0630   29.7180 O.2   614  VAL614     -0.2718
    175  CB         3.7440    6.1790   30.0500 C.3   614  VAL614      0.0266
    176  CG1        2.7030    7.2130   29.6400 C.3   614  VAL614      0.0020
    177  CG2        3.3610    5.5560   31.4030 C.3   614  VAL614      0.0020
    178  N          6.2300    4.7550   29.0320 N.am  615  TRP615     -0.1976
    179  CA         7.4680    4.0290   29.2600 C.3   615  TRP615      0.1640
    180  C          8.6150    5.0200   29.3850 C.2   615  TRP615      0.2290
    181  O          8.4360    6.2190   29.1730 O.2   615  TRP615     -0.2864
    182  CB         7.7240    3.0910   28.0830 C.3   615  TRP615      0.0576
    183  CG         7.8390    3.8190   26.7710 C.ar  615  TRP615      0.0006
    184  CD1        8.9730    4.3300   26.2110 C.ar  615  TRP615      0.0946
    185  CD2        6.7750    4.1040   25.8530 C.ar  615  TRP615      0.0152
    186  NE1        8.6850    4.9100   24.9960 N.ar  615  TRP615     -0.2442
    187  CE2        7.3420    4.7860   24.7540 C.ar  615  TRP615      0.0810
    188  CE3        5.3980    3.8470   25.8530 C.ar  615  TRP615      0.0012
    189  CZ2        6.5790    5.2140   23.6630 C.ar  615  TRP615      0.0191
    190  CZ3        4.6370    4.2710   24.7650 C.ar  615  TRP615      0.0001
    191  CH2        5.2330    4.9470   23.6850 C.ar  615  TRP615      0.0015
@<TRIPOS>BOND
     1   160   161    1
     2   189   191   ar
     3   189   187   ar
     4   191   190   ar
     5   163   162    2
     6   161   162    1
     7   161   164    1
     8   187   186   ar
     9   187   185   ar
    10   190   188   ar
    11   186   184   ar
    12   164   165    1
    13   188   185   ar
    14   185   183   ar
    15   184   183   ar
    16   183   182    1
    17   165   166    1
    18   167   166    1
    19   167   168    2
    20   170   168    1
    21   168   169    1
    22   182   179    1
    23   171   172    1
    24   172   173    1
    25   172   175    1
    26   178   179    1
    27   178   173   am
    28   181   180    2
    29   179   180    1
    30   173   174    2
    31   176   175    1
    32   175   177    1
    33    58    57    1
    34    22    20    1
    35    57    56   ar
    36    57    55   ar
    37    10     9    2
    38    56    54   ar
    39    15    13   am
    40    20    17    1
    41    20    21    1
    42    17    18    1
    43    17    16    1
    44    12    13    1
    45    12    11    1
    46    55    53   ar
    47    19    18    2
    48    13    14    2
    49     9    16   am
    50     9     8    1
    51    54    52   ar
    52    70    69   ar
    53    11     8    1
    54     8     7    1
    55    53    52   ar
    56   114   113    1
    57    52    51    1
    58    71    69   ar
    59    69    68    1
    60    60    59    1
    61    60    61    1
    62   113   111   ar
    63   113   112   ar
    64    59    49   am
    65     7     3   am
    66   111   109   ar
    67     4     3    2
    68    68    67    1
    69    51    48    1
    70    61    62    2
    71    61    63   am
    72     3     2    1
    73    23    24    1
    74   112   110   ar
    75    28    27    1
    76     6     5    1
    77    49    48    1
    78    49    50    2
    79    63    64    1
    80    78    77    1
    81    78    79    2
    82   109   108   ar
    83    48    47    1
    84   151   149   ar
    85    67    64    1
    86    77    80    1
    87    77    76    1
    88   150   149   ar
    89     5     2    1
    90    80    82    1
    91    80    81    1
    92     2     1    1
    93    24    27    1
    94    24    25    1
    95    64    65    1
    96   149   148    1
    97   110   108   ar
    98    27    29    1
    99   108   107    1
   100    47    42   am
   101    43    42    2
   102   147   146    2
   103    42    41    1
   104    25    30   am
   105    25    26    2
   106   148   145    1
   107    65    72   am
   108    65    66    2
   109    30    31    1
   110   102   100   am
   111   107   104    1
   112   146   145    1
   113    72    73    1
   114   104   103    1
   115   104   105    1
   116    39    36    1
   117   145   144    1
   118    41    40    1
   119    41    44    1
   120    32    31    1
   121    32    33    2
   122    31    34    1
   123   100    99    1
   124   100   101    2
   125    40    37   am
   126    38    37    2
   127   105   106    2
   128    46    44    1
   129    74    73    1
   130    74    75    2
   131    37    36    1
   132    90    88    1
   133   159   157    1
   134    99    96    1
   135    36    35    1
   136    44    45    1
   137   156   157    1
   138   156   153    1
   139    87    88    1
   140    87    84    1
   141    86    85    2
   142   157   158    1
   143   152   153    1
   144    88    89    1
   145   122   124   ar
   146   122   120   ar
   147    96    97    1
   148    96    95    1
   149   124   123   ar
   150   153   154    1
   151   115   116    1
   152    94    93    2
   153    97    98    2
   154   118   117    2
   155    85    84    1
   156    85    91   am
   157    95    93   am
   158    93    92    1
   159    84    83    1
   160   154   155    2
   161   120   119    1
   162   120   121   ar
   163    92    91    1
   164   117   116    1
   165   117   125   am
   166   119   116    1
   167   123   121   ar
   168   126   125    1
   169   126   129    1
   170   126   127    1
   171   136   127   am
   172   136   137    1
   173   129   130    1
   174   127   128    2
   175   137   138    1
   176   137   140    1
   177   143   141   am
   178   131   130   ar
   179   131   133   ar
   180   130   132   ar
   181   138   139    2
   182   133   135   ar
   183   141   140    1
   184   141   142    2
   185   132   134   ar
   186   135   134   ar
