@<TRIPOS>MOLECULE
tmp/1ja1A02.pdb
 206 195 0 0 0
SMALL
GASTEIGER

@<TRIPOS>ATOM
      1  N         17.3990   13.5550   14.7190 N.3   236  ARG236     -0.1245
      2  CA        17.2900   12.1680   15.1650 C.3   236  ARG236      0.1563
      3  C         16.7760   11.3030   14.0420 C.2   236  ARG236      0.2260
      4  O         16.6370   11.7450   12.9030 O.2   236  ARG236     -0.2867
      5  CB        16.2890   12.0310   16.3140 C.3   236  ARG236      0.0307
      6  CG        16.4370   13.0300   17.4280 C.3   236  ARG236      0.0489
      7  CD        15.0390   13.4470   17.8700 C.3   236  ARG236      0.2205
      8  NE        14.5580   12.7310   19.0340 N.pl3 236  ARG236     -0.0865
      9  CZ        13.2890   12.7080   19.4190 C.cat 236  ARG236      0.5346
     10  NH1       12.3560   13.3570   18.7270 N.pl3 236  ARG236      0.1354
     11  NH2       12.9660   12.0440   20.5090 N.pl3 236  ARG236      0.1354
     12  N         13.5510    8.7900   13.5180 N.3   238  LEU238     -0.1245
     13  CA        12.3270    8.1850   14.0060 C.3   238  LEU238      0.1561
     14  C         11.8080    7.3590   12.8470 C.2   238  LEU238      0.2260
     15  O         11.7930    7.8270   11.7080 O.2   238  LEU238     -0.2867
     16  CB        11.3300    9.2500   14.4520 C.3   238  LEU238      0.0270
     17  CG        11.7740    9.8480   15.7930 C.3   238  LEU238      0.0019
     18  CD1       12.6060   11.0880   15.5370 C.3   238  LEU238      0.0001
     19  CD2       10.5690   10.1830   16.6580 C.3   238  LEU238      0.0001
     20  N         11.8760    5.6220   18.0280 N.3   412  VAL412     -0.1245
     21  CA        13.0080    6.5150   17.8620 C.3   412  VAL412      0.1561
     22  C         14.2520    5.6390   18.0370 C.2   412  VAL412      0.2260
     23  O         14.3370    4.8290   18.9720 O.2   412  VAL412     -0.2867
     24  CB        12.9960    7.6630   18.9180 C.3   412  VAL412      0.0252
     25  CG1       12.8960    7.0930   20.3160 C.3   412  VAL412      0.0019
     26  CG2       14.2590    8.5200   18.7820 C.3   412  VAL412      0.0019
     27  N         17.7810    4.6880   19.1580 N.3   414  VAL414     -0.1245
     28  CA        18.6140    5.1150   20.2720 C.3   414  VAL414      0.1561
     29  C         20.0860    5.1140   19.9000 C.2   414  VAL414      0.2260
     30  O         20.6280    4.1080   19.4470 O.2   414  VAL414     -0.2867
     31  CB        18.3710    4.2220   21.5090 C.3   414  VAL414      0.0252
     32  CG1       19.3600    4.5690   22.6370 C.3   414  VAL414      0.0019
     33  CG2       16.9360    4.4180   21.9910 C.3   414  VAL414      0.0019
     34  N          2.5330   12.9840   23.0920 N.3   471  PRO471     -0.2102
     35  CA         3.5980   13.7100   22.3910 C.3   471  PRO471      0.1504
     36  C          4.7510   12.7680   22.0280 C.2   471  PRO471      0.2576
     37  O          4.9360   11.7280   22.6630 O.2   471  PRO471     -0.2718
     38  CB         4.0100   14.7770   23.4020 C.3   471  PRO471      0.0282
     39  CG         3.8170   14.0730   24.7200 C.3   471  PRO471      0.0208
     40  CD         2.4730   13.3760   24.5140 C.3   471  PRO471      0.0893
     41  N          5.5170   13.1350   21.0060 N.am  472  GLY472     -0.1943
     42  CA         6.6250   12.3040   20.5850 C.3   472  GLY472      0.2014
     43  C          6.1640   10.9180   20.1760 C.2   472  GLY472      0.2640
     44  O          5.1010   10.7600   19.5650 O.2   472  GLY472     -0.2714
     45  N          6.9670    9.9080   20.5020 N.am  473  THR473     -0.1936
     46  CA         6.6210    8.5340   20.1670 C.3   473  THR473      0.2028
     47  C          5.3790    8.0690   20.9230 C.2   473  THR473      0.2642
     48  O          4.8970    6.9580   20.7140 O.2   473  THR473     -0.2714
     49  CB         7.7960    7.5620   20.4400 C.3   473  THR473      0.1808
     50  OG1        8.2330    7.6960   21.7980 O.3   473  THR473     -0.2208
     51  CG2        8.9510    7.8500   19.4910 C.3   473  THR473      0.0379
     52  N          4.8570    8.9290   21.7970 N.am  474  GLY474     -0.1954
     53  CA         3.6510    8.5970   22.5290 C.3   474  GLY474      0.1869
     54  C          2.4790    8.5800   21.5590 C.2   474  GLY474      0.2309
     55  O          1.3620    8.1940   21.9120 O.2   474  GLY474     -0.2863
     56  N          2.5270   16.4360   20.2500 N.3   503  GLY503     -0.1210
     57  CA         3.6110   17.3880   20.3990 C.3   503  GLY503      0.1956
     58  C          4.9340   16.9010   19.8350 C.2   503  GLY503      0.2612
     59  O          5.2320   15.7010   19.8320 O.2   503  GLY503     -0.2717
     60  N          5.7210   17.8450   19.3370 N.am  504  CYS504     -0.1956
     61  CA         7.0290   17.5640   18.7660 C.3   504  CYS504      0.1843
     62  C          7.8370   18.8660   18.8660 C.2   504  CYS504      0.2625
     63  O          7.3000   19.8920   19.2980 O.2   504  CYS504     -0.2714
     64  CB         6.8800   17.1040   17.3100 C.3   504  CYS504      0.0997
     65  SG         6.1300   18.3200   16.1990 S.3   504  CYS504     -0.0797
     66  N          9.1130   18.8390   18.4870 N.am  505  ARG505     -0.1977
     67  CA         9.9410   20.0440   18.5850 C.3   505  ARG505      0.1597
     68  C          9.5430   21.1010   17.5720 C.2   505  ARG505      0.2287
     69  O          9.2960   22.2510   17.9340 O.2   505  ARG505     -0.2864
     70  CB        11.4200   19.7280   18.3620 C.3   505  ARG505      0.0334
     71  CG        11.7650   18.2720   18.4000 C.3   505  ARG505      0.0492
     72  CD        12.1460   17.8030   19.7820 C.3   505  ARG505      0.2205
     73  NE        13.5450   17.3850   19.8120 N.pl3 505  ARG505     -0.0865
     74  CZ        14.0540   16.5600   20.7160 C.cat 505  ARG505      0.5346
     75  NH1       13.2720   16.0630   21.6670 N.pl3 505  ARG505      0.1354
     76  NH2       15.3380   16.2270   20.6680 N.pl3 505  ARG505      0.1354
     77  N         10.3730   16.9490   13.4720 N.3   510  ASP510     -0.1239
     78  CA         9.9230   15.6100   13.8380 C.3   510  ASP510      0.1674
     79  C          8.4290   15.4820   14.1200 C.2   510  ASP510      0.2266
     80  O          8.0190   14.9060   15.1330 O.2   510  ASP510     -0.2867
     81  CB        10.7310   15.1090   15.0450 C.3   510  ASP510      0.1410
     82  CG        10.7420   16.1040   16.1970 C.2   510  ASP510      0.3668
     83  OD1        9.9690   17.0900   16.1540 O.co2 510  ASP510     -0.2456
     84  OD2       11.5210   15.8910   17.1540 O.co2 510  ASP510     -0.2456
     85  N          1.4240   20.7190   19.9930 N.3   532  ALA532     -0.1245
     86  CA         2.3170   21.6240   20.6910 C.3   532  ALA532      0.1562
     87  C          3.7190   21.5290   20.0910 C.2   532  ALA532      0.2260
     88  O          4.3720   20.4820   20.1690 O.2   532  ALA532     -0.2867
     89  CB         2.3520   21.2820   22.1880 C.3   532  ALA532      0.0290
     90  N          7.0680   22.4440   20.7120 N.3   534  SER534     -0.1202
     91  CA         7.8960   22.8930   21.8250 C.3   534  SER534      0.2020
     92  C          9.0710   23.8140   21.5460 C.2   534  SER534      0.2618
     93  O          9.4740   24.5630   22.4360 O.2   534  SER534     -0.2717
     94  CB         8.4010   21.6830   22.6160 C.3   534  SER534      0.2103
     95  OG         9.3640   20.9510   21.8820 O.3   534  SER534     -0.2182
     96  N          9.6160   23.7810   20.3320 N.am  535  ARG535     -0.1979
     97  CA        10.7790   24.6100   20.0230 C.3   535  ARG535      0.1597
     98  C         10.6030   25.6580   18.9290 C.2   535  ARG535      0.2287
     99  O         11.5880   26.2140   18.4420 O.2   535  ARG535     -0.2864
    100  CB        11.9640   23.7030   19.6730 C.3   535  ARG535      0.0334
    101  CG        12.2270   22.6530   20.7420 C.3   535  ARG535      0.0492
    102  CD        13.5020   21.8480   20.5240 C.3   535  ARG535      0.2205
    103  NE        13.6030   20.8110   21.5480 N.pl3 535  ARG535     -0.0865
    104  CZ        14.6590   20.0300   21.7390 C.cat 535  ARG535      0.5346
    105  NH1       15.7380   20.1560   20.9730 N.pl3 535  ARG535      0.1354
    106  NH2       14.6290   19.1160   22.6990 N.pl3 535  ARG535      0.1354
    107  N          8.5900   27.0850   25.9490 N.3   540  LYS540     -0.1245
    108  CA         8.1150   25.7420   25.6610 C.3   540  LYS540      0.1561
    109  C          6.5930   25.7160   25.5270 C.2   540  LYS540      0.2260
    110  O          5.8840   26.3800   26.2820 O.2   540  LYS540     -0.2867
    111  CB         8.4970   24.7880   26.7990 C.3   540  LYS540      0.0271
    112  CG         9.9880   24.5770   27.0280 C.3   540  LYS540      0.0035
    113  CD        10.6590   23.8980   25.8410 C.3   540  LYS540      0.0206
    114  CE        12.0940   23.4880   26.1850 C.3   540  LYS540      0.1093
    115  NZ        12.7690   22.8210   25.0370 N.3   540  LYS540     -0.1314
    116  N          3.8520   22.7700   25.4570 N.3   542  TYR542     -0.1227
    117  CA         3.6540   21.3370   25.6650 C.3   542  TYR542      0.1736
    118  C          2.1770   20.9630   25.6100 C.2   542  TYR542      0.2595
    119  O          1.3080   21.8290   25.7060 O.2   542  TYR542     -0.2718
    120  CB         4.1840   20.9470   27.0420 C.3   542  TYR542      0.0548
    121  CG         5.6820   21.0270   27.2100 C.ar  542  TYR542     -0.0200
    122  CD1        6.2460   21.1120   28.4820 C.ar  542  TYR542     -0.0009
    123  CD2        6.5410   20.9480   26.1100 C.ar  542  TYR542     -0.0009
    124  CE1        7.6210   21.1120   28.6600 C.ar  542  TYR542      0.0417
    125  CE2        7.9260   20.9460   26.2810 C.ar  542  TYR542      0.0417
    126  CZ         8.4520   21.0260   27.5590 C.ar  542  TYR542      0.1957
    127  OH         9.8080   21.0180   27.7490 O.3   542  TYR542     -0.2866
    128  N          1.8960   19.6690   25.4930 N.am  543  VAL543     -0.1966
    129  CA         0.5120   19.2190   25.4450 C.3   543  VAL543      0.1727
    130  C         -0.2980   19.7100   26.6510 C.2   543  VAL543      0.2616
    131  O         -1.4530   20.0980   26.4990 O.2   543  VAL543     -0.2715
    132  CB         0.4070   17.6650   25.3470 C.3   543  VAL543      0.0290
    133  CG1        0.8160   17.2130   23.9630 C.3   543  VAL543      0.0023
    134  CG2        1.2820   16.9910   26.4040 C.3   543  VAL543      0.0023
    135  N          0.2980   19.7150   27.8440 N.am  544  GLN544     -0.1977
    136  CA        -0.4460   20.1670   29.0160 C.3   544  GLN544      0.1601
    137  C         -0.9080   21.6080   28.8980 C.2   544  GLN544      0.2287
    138  O         -1.9200   21.9690   29.4850 O.2   544  GLN544     -0.2864
    139  CB         0.3630   20.0060   30.3130 C.3   544  GLN544      0.0394
    140  CG         1.7540   20.6030   30.3060 C.3   544  GLN544      0.0908
    141  CD         2.7960   19.5940   29.8830 C.2   544  GLN544      0.2608
    142  OE1        3.9020   19.5560   30.4320 O.2   544  GLN544     -0.2717
    143  NE2        2.4520   18.7730   28.9030 N.am  544  GLN544     -0.0878
    144  N          6.2540    9.4200   27.2630 N.3   570  ASP570     -0.1239
    145  CA         7.1400    9.6110   28.4160 C.3   570  ASP570      0.1674
    146  C          6.4480    9.4790   29.7670 C.2   570  ASP570      0.2266
    147  O          5.5810   10.2810   30.1170 O.2   570  ASP570     -0.2867
    148  CB         7.7990   10.9890   28.3550 C.3   570  ASP570      0.1410
    149  CG         8.7130   11.2400   29.5370 C.2   570  ASP570      0.3668
    150  OD1        8.7060   12.3670   30.0690 O.co2 570  ASP570     -0.2456
    151  OD2        9.4400   10.3040   29.9310 O.co2 570  ASP570     -0.2456
    152  N          8.1960    9.4530   32.7230 N.3   572  ARG572     -0.1231
    153  CA         8.9350   10.1920   33.7460 C.3   572  ARG572      0.1694
    154  C          8.4440   11.5960   34.0530 C.2   572  ARG572      0.2592
    155  O          8.1920   11.9190   35.2110 O.2   572  ARG572     -0.2718
    156  CB        10.4280   10.2530   33.4050 C.3   572  ARG572      0.0321
    157  CG        11.1280    8.9100   33.4850 C.3   572  ARG572      0.0489
    158  CD        12.6360    9.0460   33.6900 C.3   572  ARG572      0.2205
    159  NE        13.0430    8.8980   35.0910 N.pl3 572  ARG572     -0.0865
    160  CZ        13.0880    9.8870   35.9800 C.cat 572  ARG572      0.5346
    161  NH1       12.7510   11.1200   35.6290 N.pl3 572  ARG572      0.1354
    162  NH2       13.4880    9.6480   37.2220 N.pl3 572  ARG572      0.1354
    163  N          8.3050   12.4350   33.0340 N.am  573  ASN573     -0.1960
    164  CA         7.8650   13.8030   33.2780 C.3   573  ASN573      0.1819
    165  C          6.5470   14.2050   32.6280 C.2   573  ASN573      0.2621
    166  O          5.6720   14.7600   33.2880 O.2   573  ASN573     -0.2715
    167  CB         8.9590   14.7880   32.8530 C.3   573  ASN573      0.1195
    168  CG        10.2620   14.5740   33.6060 C.2   573  ASN573      0.2630
    169  OD1       10.9860   13.6110   33.3550 O.2   573  ASN573     -0.2716
    170  ND2       10.5610   15.4680   34.5400 N.am  573  ASN573     -0.0877
    171  N          6.4030   13.9320   31.3390 N.am  574  MET574     -0.1977
    172  CA         5.1880   14.3090   30.6310 C.3   574  MET574      0.1605
    173  C          3.9120   13.7730   31.2840 C.2   574  MET574      0.2287
    174  O          2.9960   14.5380   31.6040 O.2   574  MET574     -0.2864
    175  CB         5.2820   13.8470   29.1720 C.3   574  MET574      0.0413
    176  CG         4.1040   14.2590   28.2960 C.3   574  MET574      0.0598
    177  SD         2.6720   13.1650   28.4160 S.3   574  MET574     -0.1393
    178  CE         3.3070   11.7420   27.5130 C.3   574  MET574      0.0692
    179  N          3.1430   15.5780   34.5460 N.3   577  ASP577     -0.1239
    180  CA         2.7050   16.9530   34.3400 C.3   577  ASP577      0.1674
    181  C          1.2840   16.9590   33.7760 C.2   577  ASP577      0.2266
    182  O          0.4490   17.7690   34.1820 O.2   577  ASP577     -0.2867
    183  CB         3.6610   17.7050   33.4040 C.3   577  ASP577      0.1410
    184  CG         5.0350   17.9150   34.0170 C.2   577  ASP577      0.3668
    185  OD1        5.1350   17.9210   35.2630 O.co2 577  ASP577     -0.2456
    186  OD2        6.0120   18.0910   33.2600 O.co2 577  ASP577     -0.2456
    187  N          6.2300    4.7550   29.0320 N.3   615  TRP615     -0.1227
    188  CA         7.4680    4.0290   29.2600 C.3   615  TRP615      0.1737
    189  C          8.6150    5.0200   29.3850 C.2   615  TRP615      0.2596
    190  O          8.4360    6.2190   29.1730 O.2   615  TRP615     -0.2718
    191  CB         7.7240    3.0910   28.0830 C.3   615  TRP615      0.0564
    192  CG         7.8390    3.8190   26.7710 C.ar  615  TRP615      0.0003
    193  CD1        8.9730    4.3300   26.2110 C.ar  615  TRP615      0.0946
    194  CD2        6.7750    4.1040   25.8530 C.ar  615  TRP615      0.0152
    195  NE1        8.6850    4.9100   24.9960 N.ar  615  TRP615     -0.2442
    196  CE2        7.3420    4.7860   24.7540 C.ar  615  TRP615      0.0810
    197  CE3        5.3980    3.8470   25.8530 C.ar  615  TRP615      0.0012
    198  CZ2        6.5790    5.2140   23.6630 C.ar  615  TRP615      0.0191
    199  CZ3        4.6370    4.2710   24.7650 C.ar  615  TRP615      0.0001
    200  CH2        5.2330    4.9470   23.6850 C.ar  615  TRP615      0.0015
    201  N          9.7980    4.5160   29.7150 N.am  616  SER616     -0.1952
    202  CA        10.9610    5.3800   29.8490 C.3   616  SER616      0.1924
    203  C         12.1130    4.9110   28.9570 C.2   616  SER616      0.2314
    204  O         11.9190    3.9340   28.2010 O.2   616  SER616     -0.2863
    205  CB        11.4180    5.4100   31.3030 C.3   616  SER616      0.2116
    206  OG        11.8220    4.1170   31.7100 O.3   616  SER616     -0.2180
@<TRIPOS>BOND
     1    15    14    2
     2    14    13    1
     3     4     3    2
     4    77    78    1
     5    12    13    1
     6    78    79    1
     7    78    81    1
     8    13    16    1
     9     3     2    1
    10    79    80    2
    11    16    17    1
    12     1     2    1
    13    81    82    1
    14     2     5    1
    15    18    17    1
    16    17    19    1
    17    83    82   ar
    18    82    84   ar
    19    65    64    1
    20     5     6    1
    21    64    61    1
    22     6     7    1
    23    68    69    2
    24    68    67    1
    25    21    20    1
    26    21    22    1
    27    21    24    1
    28     7     8    1
    29    22    23    2
    30    70    71    1
    31    70    67    1
    32    71    72    1
    33    99    98    2
    34    66    67    1
    35    66    62   am
    36    10     9    1
    37    61    62    1
    38    61    60    1
    39    26    24    1
    40    62    63    2
    41    24    25    1
    42    98    97    1
    43     8     9    2
    44    27    28    1
    45    60    58   am
    46     9    11    1
    47    30    29    2
    48    51    49    1
    49    44    43    2
    50   100    97    1
    51   100   101    1
    52    72    73    1
    53    73    74    2
    54    59    58    2
    55    58    57    1
    56    29    28    1
    57    85    86    1
    58    97    96    1
    59    87    88    2
    60    87    86    1
    61    46    49    1
    62    46    45    1
    63    46    47    1
    64    43    45   am
    65    43    42    1
    66    56    57    1
    67    28    31    1
    68    96    92   am
    69    49    50    1
    70   102   101    1
    71   102   103    1
    72    42    41    1
    73    76    74    1
    74    86    89    1
    75    90    91    1
    76    48    47    2
    77    74    75    1
    78    47    52   am
    79   105   104    1
    80    41    36   am
    81    31    33    1
    82    31    32    1
    83    92    91    1
    84    92    93    2
    85   103   104    2
    86    54    55    2
    87    54    53    1
    88   104   106    1
    89    52    53    1
    90    91    94    1
    91    95    94    1
    92    36    35    1
    93    36    37    2
    94    35    34    1
    95    35    38    1
    96    34    40    1
    97    38    39    1
    98   198   200   ar
    99   198   196   ar
   100   200   199   ar
   101   133   132    1
   102    40    39    1
   103   196   195   ar
   104   196   194   ar
   105   199   197   ar
   106   195   193   ar
   107   115   114    1
   108   132   129    1
   109   132   134    1
   110   129   128    1
   111   129   130    1
   112   116   117    1
   113   128   118   am
   114   109   108    1
   115   109   110    2
   116   118   117    1
   117   118   119    2
   118   108   107    1
   119   108   111    1
   120   117   120    1
   121   113   114    1
   122   113   112    1
   123   197   194   ar
   124   194   192   ar
   125   123   125   ar
   126   123   121   ar
   127   193   192   ar
   128   125   126   ar
   129   131   130    2
   130   130   135   am
   131   192   191    1
   132   111   112    1
   133   120   121    1
   134   121   122   ar
   135   144   145    1
   136   178   177    1
   137   126   127    1
   138   126   124   ar
   139   135   136    1
   140   191   188    1
   141   204   203    2
   142   176   177    1
   143   176   175    1
   144   148   145    1
   145   148   149    1
   146   145   146    1
   147   122   124   ar
   148   137   136    1
   149   137   138    2
   150   143   141   am
   151   203   202    1
   152   136   139    1
   153   187   188    1
   154   175   172    1
   155   190   189    2
   156   188   189    1
   157   189   201   am
   158   149   151   ar
   159   149   150   ar
   160   201   202    1
   161   146   147    2
   162   202   205    1
   163   141   140    1
   164   141   142    2
   165   140   139    1
   166   172   173    1
   167   172   171    1
   168   173   174    2
   169   205   206    1
   170   171   165   am
   171   165   164    1
   172   165   166    2
   173   152   153    1
   174   167   164    1
   175   167   168    1
   176   163   164    1
   177   163   154   am
   178   186   184   ar
   179   169   168    2
   180   183   184    1
   181   183   180    1
   182   156   157    1
   183   156   153    1
   184   157   158    1
   185   168   170   am
   186   158   159    1
   187   153   154    1
   188   181   182    2
   189   181   180    1
   190   184   185   ar
   191   154   155    2
   192   180   179    1
   193   159   160    2
   194   161   160    1
   195   160   162    1
