@<TRIPOS>MOLECULE
tmp/1ja1A00.pdb
 238 231 0 0 0
SMALL
GASTEIGER

@<TRIPOS>ATOM
      1  N          3.8870   -4.4410   38.1750 N.3    78  TYR78      -0.1241
      2  CA         3.6520   -4.0870   36.7820 C.3    78  TYR78       0.1605
      3  C          2.2640   -3.4750   36.6070 C.2    78  TYR78       0.2264
      4  O          1.5400   -3.2680   37.5820 O.2    78  TYR78      -0.2867
      5  CB         3.7720   -5.3400   35.9150 C.3    78  TYR78       0.0534
      6  CG         4.0870   -5.0660   34.4670 C.ar   78  TYR78      -0.0201
      7  CD1        5.3720   -4.7030   34.0690 C.ar   78  TYR78      -0.0009
      8  CD2        3.0990   -5.1680   33.4900 C.ar   78  TYR78      -0.0009
      9  CE1        5.6620   -4.4500   32.7260 C.ar   78  TYR78       0.0417
     10  CE2        3.3750   -4.9110   32.1460 C.ar   78  TYR78       0.0417
     11  CZ         4.6590   -4.5550   31.7710 C.ar   78  TYR78       0.1957
     12  OH         4.9440   -4.3020   30.4460 O.3    78  TYR78      -0.2866
     13  N          0.6400   -4.4320   22.6610 N.3   257  HIS257     -0.1241
     14  CA         2.0680   -4.2650   22.4760 C.3   257  HIS257      0.1621
     15  C          2.6500   -5.3930   21.6400 C.2   257  HIS257      0.2264
     16  O          2.1550   -6.5240   21.6560 O.2   257  HIS257     -0.2867
     17  CB         2.7760   -4.2370   23.8310 C.3   257  HIS257      0.0745
     18  CG         2.3900   -3.0750   24.6880 C.ar  257  HIS257      0.0817
     19  ND1        2.7370   -1.7770   24.3760 N.ar  257  HIS257     -0.2268
     20  CD2        1.6730   -3.0070   25.8320 C.ar  257  HIS257      0.1154
     21  CE1        2.2490   -0.9620   25.2920 C.ar  257  HIS257      0.1986
     22  NE2        1.5980   -1.6820   26.1880 N.ar  257  HIS257     -0.2212
     23  N         25.1830   -4.9700   26.4700 N.3   316  THR316     -0.1203
     24  CA        25.1860   -3.5190   26.3720 C.3   316  THR316      0.1994
     25  C         24.8080   -2.7600   27.6280 C.2   316  THR316      0.2617
     26  O         25.2210   -1.6180   27.8000 O.2   316  THR316     -0.2717
     27  CB        24.2660   -3.0750   25.2370 C.3   316  THR316      0.1784
     28  OG1       23.0040   -3.7340   25.3770 O.3   316  THR316     -0.2211
     29  CG2       24.8690   -3.4430   23.9030 C.3   316  THR316      0.0376
     30  N         24.0040   -3.3580   28.4970 N.am  317  ASN317     -0.1974
     31  CA        23.6520   -2.6550   29.7190 C.3   317  ASN317      0.1688
     32  C         24.7940   -2.7860   30.7200 C.2   317  ASN317      0.2292
     33  O         25.5600   -3.7380   30.6770 O.2   317  ASN317     -0.2864
     34  CB        22.3380   -3.1850   30.2900 C.3   317  ASN317      0.1181
     35  CG        21.1460   -2.7750   29.4440 C.2   317  ASN317      0.2629
     36  OD1       21.0160   -1.6090   29.0670 O.2   317  ASN317     -0.2716
     37  ND2       20.2760   -3.7280   29.1360 N.am  317  ASN317     -0.0877
     38  N         26.3840    5.3900   35.6680 N.3   360  GLU360     -0.1245
     39  CA        26.2260    6.7260   35.1180 C.3   360  GLU360      0.1567
     40  C         26.8830    6.8420   33.7410 C.2   360  GLU360      0.2260
     41  O         26.2880    7.3610   32.7970 O.2   360  GLU360     -0.2867
     42  CB        26.8230    7.7450   36.0940 C.3   360  GLU360      0.0388
     43  CG        26.6810    9.1920   35.6710 C.3   360  GLU360      0.1160
     44  CD        25.2410    9.5850   35.4040 C.2   360  GLU360      0.3649
     45  OE1       24.3860    9.3890   36.2970 O.co2 360  GLU360     -0.2457
     46  OE2       24.9660   10.0980   34.2980 O.co2 360  GLU360     -0.2457
     47  N         27.4040    4.5180   31.7440 N.3   362  ARG362     -0.1245
     48  CA        26.8230    3.5090   30.8610 C.3   362  ARG362      0.1563
     49  C         27.8890    2.6280   30.2040 C.2   362  ARG362      0.2260
     50  O         27.8510    2.3710   28.9920 O.2   362  ARG362     -0.2867
     51  CB        25.9540    4.1820   29.7850 C.3   362  ARG362      0.0307
     52  CG        24.7150    4.9010   30.3210 C.3   362  ARG362      0.0489
     53  CD        23.6490    3.9070   30.7900 C.3   362  ARG362      0.2205
     54  NE        23.3150    2.9340   29.7460 N.pl3 362  ARG362     -0.0865
     55  CZ        22.4310    1.9490   29.8870 C.cat 362  ARG362      0.5346
     56  NH1       22.2000    1.1170   28.8810 N.pl3 362  ARG362      0.1354
     57  NH2       21.7730    1.7960   31.0300 N.pl3 362  ARG362      0.1354
     58  N         12.1750   -6.4480   23.3090 N.3   392  ARG392     -0.1231
     59  CA        11.8070   -5.0440   23.4780 C.3   392  ARG392      0.1694
     60  C         10.3580   -4.8680   23.0380 C.2   392  ARG392      0.2592
     61  O          9.9550   -5.4060   22.0100 O.2   392  ARG392     -0.2718
     62  CB        12.7080   -4.1360   22.6340 C.3   392  ARG392      0.0321
     63  CG        13.9580   -3.6260   23.3450 C.3   392  ARG392      0.0489
     64  CD        14.9520   -4.7260   23.7250 C.3   392  ARG392      0.2205
     65  NE        16.2180   -4.1280   24.1560 N.pl3 392  ARG392     -0.0865
     66  CZ        17.2170   -4.7900   24.7320 C.cat 392  ARG392      0.5346
     67  NH1       18.3250   -4.1420   25.0820 N.pl3 392  ARG392      0.1354
     68  NH2       17.1090   -6.0940   24.9690 N.pl3 392  ARG392      0.1354
     69  N          9.5910   -4.1100   23.8160 N.am  393  TYR393     -0.1962
     70  CA         8.1820   -3.8640   23.5320 C.3   393  TYR393      0.1771
     71  C          7.9160   -2.5260   22.8570 C.2   393  TYR393      0.2620
     72  O          8.6200   -1.5390   23.0930 O.2   393  TYR393     -0.2715
     73  CB         7.3750   -3.9510   24.8340 C.3   393  TYR393      0.0574
     74  CG         7.3370   -5.3500   25.4080 C.ar  393  TYR393     -0.0198
     75  CD1        6.2840   -6.2170   25.1160 C.ar  393  TYR393     -0.0009
     76  CD2        8.3860   -5.8290   26.1940 C.ar  393  TYR393     -0.0009
     77  CE1        6.2740   -7.5300   25.5930 C.ar  393  TYR393      0.0417
     78  CE2        8.3870   -7.1450   26.6770 C.ar  393  TYR393      0.0417
     79  CZ         7.3280   -7.9880   26.3700 C.ar  393  TYR393      0.1957
     80  OH         7.3200   -9.2840   26.8330 O.3   393  TYR393     -0.2866
     81  N          6.8880   -2.5110   22.0150 N.am  394  TYR394     -0.1960
     82  CA         6.4810   -1.3180   21.2840 C.3   394  TYR394      0.1771
     83  C          4.9590   -1.2480   21.2310 C.2   394  TYR394      0.2619
     84  O          4.2850   -2.2640   21.0650 O.2   394  TYR394     -0.2715
     85  CB         7.0670   -1.3530   19.8670 C.3   394  TYR394      0.0574
     86  CG         8.5760   -1.3200   19.8890 C.ar  394  TYR394     -0.0198
     87  CD1        9.2590   -0.1090   19.9940 C.ar  394  TYR394     -0.0009
     88  CD2        9.3180   -2.5060   19.9400 C.ar  394  TYR394     -0.0009
     89  CE1       10.6400   -0.0700   20.1620 C.ar  394  TYR394      0.0417
     90  CE2       10.7010   -2.4800   20.1140 C.ar  394  TYR394      0.0417
     91  CZ        11.3520   -1.2550   20.2300 C.ar  394  TYR394      0.1957
     92  OH        12.7010   -1.2080   20.4690 O.3   394  TYR394     -0.2866
     93  N          4.4120   -0.0520   21.4040 N.am  395  ALA395     -0.1977
     94  CA         2.9680    0.1070   21.3570 C.3   395  ALA395      0.1597
     95  C          2.5610   -0.0160   19.8930 C.2   395  ALA395      0.2287
     96  O          2.9340    0.8260   19.0730 O.2   395  ALA395     -0.2864
     97  CB         2.5780    1.4660   21.9030 C.3   395  ALA395      0.0319
     98  N          6.2680    2.3690   15.7480 N.3   410  CYS410     -0.1221
     99  CA         6.7410    3.7550   15.6600 C.3   410  CYS410      0.1808
    100  C          7.8170    3.8660   16.7290 C.2   410  CYS410      0.2601
    101  O          7.5150    3.7800   17.9100 O.2   410  CYS410     -0.2717
    102  CB         5.6200    4.7460   15.9830 C.3   410  CYS410      0.0970
    103  SG         6.1960    6.4540   16.2530 S.3   410  CYS410     -0.0800
    104  N          9.0680    4.0580   16.3320 N.am  411  ALA411     -0.1965
    105  CA        10.1270    4.1340   17.3240 C.3   411  ALA411      0.1728
    106  C         11.2430    5.1000   16.9860 C.2   411  ALA411      0.2616
    107  O         11.5310    5.3570   15.8160 O.2   411  ALA411     -0.2715
    108  CB        10.7150    2.7400   17.5430 C.3   411  ALA411      0.0334
    109  N         11.8760    5.6220   18.0280 N.am  412  VAL412     -0.1977
    110  CA        13.0080    6.5150   17.8620 C.3   412  VAL412      0.1596
    111  C         14.2520    5.6390   18.0370 C.2   412  VAL412      0.2287
    112  O         14.3370    4.8290   18.9720 O.2   412  VAL412     -0.2864
    113  CB        12.9960    7.6630   18.9180 C.3   412  VAL412      0.0276
    114  CG1       12.8960    7.0930   20.3160 C.3   412  VAL412      0.0022
    115  CG2       14.2590    8.5200   18.7820 C.3   412  VAL412      0.0022
    116  N         17.7810    4.6880   19.1580 N.3   414  VAL414     -0.1245
    117  CA        18.6140    5.1150   20.2720 C.3   414  VAL414      0.1561
    118  C         20.0860    5.1140   19.9000 C.2   414  VAL414      0.2260
    119  O         20.6280    4.1080   19.4470 O.2   414  VAL414     -0.2867
    120  CB        18.3710    4.2220   21.5090 C.3   414  VAL414      0.0252
    121  CG1       19.3600    4.5690   22.6370 C.3   414  VAL414      0.0019
    122  CG2       16.9360    4.4180   21.9910 C.3   414  VAL414      0.0019
    123  N         23.4670    7.5490   21.4790 N.3   416  TYR416     -0.1227
    124  CA        23.8910    8.6910   22.2800 C.3   416  TYR416      0.1736
    125  C         25.3320    8.5960   22.7520 C.2   416  TYR416      0.2595
    126  O         25.9000    7.5080   22.8260 O.2   416  TYR416     -0.2718
    127  CB        22.9880    8.8000   23.5110 C.3   416  TYR416      0.0548
    128  CG        23.0710    7.5720   24.3990 C.ar  416  TYR416     -0.0200
    129  CD1       22.2850    6.4460   24.1420 C.ar  416  TYR416     -0.0009
    130  CD2       23.9660    7.5210   25.4710 C.ar  416  TYR416     -0.0009
    131  CE1       22.3920    5.2870   24.9380 C.ar  416  TYR416      0.0417
    132  CE2       24.0810    6.3690   26.2730 C.ar  416  TYR416      0.0417
    133  CZ        23.2920    5.2590   26.0000 C.ar  416  TYR416      0.1957
    134  OH        23.4070    4.1220   26.7740 O.3   416  TYR416     -0.2866
    135  N         25.9050    9.7450   23.0910 N.am  417  GLU417     -0.1965
    136  CA        27.2670    9.8160   23.5900 C.3   417  GLU417      0.1733
    137  C         27.2170    9.5680   25.0830 C.2   417  GLU417      0.2616
    138  O         26.5570   10.3190   25.7960 O.2   417  GLU417     -0.2715
    139  CB        27.8430   11.1990   23.3230 C.3   417  GLU417      0.0429
    140  CG        28.0330   11.5680   21.8520 C.3   417  GLU417      0.1163
    141  CD        28.6630   12.9580   21.6760 C.2   417  GLU417      0.3649
    142  OE1       28.9570   13.6110   22.6950 O.co2 417  GLU417     -0.2457
    143  OE2       28.8710   13.4130   20.5320 O.co2 417  GLU417     -0.2457
    144  N         27.8820    8.5110   25.5370 N.am  418  ALA418     -0.1977
    145  CA        27.8920    8.1670   26.9520 C.3   418  ALA418      0.1597
    146  C         29.0930    8.8240   27.6110 C.2   418  ALA418      0.2287
    147  O         30.0770    9.1260   26.9360 O.2   418  ALA418     -0.2864
    148  CB        27.9740    6.6540   27.1090 C.3   418  ALA418      0.0319
    149  N         24.7360    2.3990   21.1790 N.3   425  LYS425     -0.1231
    150  CA        23.6470    2.2080   20.2250 C.3   425  LYS425      0.1693
    151  C         22.5840    1.3150   20.8640 C.2   425  LYS425      0.2593
    152  O         22.9120    0.3200   21.5120 O.2   425  LYS425     -0.2718
    153  CB        24.1670    1.5220   18.9520 C.3   425  LYS425      0.0285
    154  CG        25.2820    2.2510   18.1960 C.3   425  LYS425      0.0035
    155  CD        24.7470    3.3640   17.3100 C.3   425  LYS425      0.0206
    156  CE        23.8140    2.8190   16.2190 C.3   425  LYS425      0.1093
    157  NZ        24.5010    1.8820   15.2820 N.3   425  LYS425     -0.1314
    158  N         21.3170    1.6700   20.6810 N.am  426  GLY426     -0.1942
    159  CA        20.2390    0.8680   21.2330 C.3   426  GLY426      0.2014
    160  C         20.1660   -0.4480   20.4840 C.2   426  GLY426      0.2639
    161  O         20.1610   -0.4740   19.2510 O.2   426  GLY426     -0.2714
    162  N         20.1000   -1.5450   21.2250 N.am  427  VAL427     -0.1963
    163  CA        20.0670   -2.8610   20.6110 C.3   427  VAL427      0.1727
    164  C         18.9240   -3.1040   19.6290 C.2   427  VAL427      0.2616
    165  O         19.1620   -3.3430   18.4470 O.2   427  VAL427     -0.2715
    166  CB        20.0350   -3.9780   21.6740 C.3   427  VAL427      0.0290
    167  CG1       19.9960   -5.3380   20.9860 C.3   427  VAL427      0.0023
    168  CG2       21.2680   -3.8800   22.5760 C.3   427  VAL427      0.0023
    169  N         17.6860   -3.0420   20.1060 N.am  428  ALA428     -0.1963
    170  CA        16.5500   -3.3090   19.2290 C.3   428  ALA428      0.1728
    171  C         16.3180   -2.2840   18.1260 C.2   428  ALA428      0.2616
    172  O         16.0390   -2.6530   16.9840 O.2   428  ALA428     -0.2715
    173  CB        15.2720   -3.4730   20.0510 C.3   428  ALA428      0.0334
    174  N         16.4230   -0.9990   18.4480 N.am  429  THR429     -0.1951
    175  CA        16.1800    0.0130   17.4290 C.3   429  THR429      0.1897
    176  C         17.2630    0.0570   16.3530 C.2   429  THR429      0.2313
    177  O         16.9600    0.3060   15.1850 O.2   429  THR429     -0.2863
    178  CB        15.9860    1.4060   18.0560 C.3   429  THR429      0.1794
    179  OG1       17.1360    1.7560   18.8400 O.3   429  THR429     -0.2208
    180  CG2       14.7310    1.4130   18.9410 C.3   429  THR429      0.0378
    181  N          1.6400   -8.9570   23.0790 N.3   452  ARG452     -0.1245
    182  CA         1.2580   -9.0200   24.4820 C.3   452  ARG452      0.1563
    183  C          0.0340   -8.1410   24.6270 C.2   452  ARG452      0.2260
    184  O          0.0750   -6.9460   24.3340 O.2   452  ARG452     -0.2867
    185  CB         2.3770   -8.5080   25.3920 C.3   452  ARG452      0.0307
    186  CG         2.0370   -8.6040   26.8780 C.3   452  ARG452      0.0489
    187  CD         3.1620   -8.0470   27.7420 C.3   452  ARG452      0.2205
    188  NE         3.3200   -6.6060   27.5620 N.pl3 452  ARG452     -0.0865
    189  CZ         4.3200   -5.8870   28.0640 C.cat 452  ARG452      0.5346
    190  NH1        5.2680   -6.4710   28.7870 N.pl3 452  ARG452      0.1354
    191  NH2        4.3700   -4.5800   27.8440 N.pl3 452  ARG452      0.1354
    192  N          6.9670    9.9080   20.5020 N.3   473  THR473     -0.1218
    193  CA         6.6210    8.5340   20.1670 C.3   473  THR473      0.1862
    194  C          5.3790    8.0690   20.9230 C.2   473  THR473      0.2287
    195  O          4.8970    6.9580   20.7140 O.2   473  THR473     -0.2866
    196  CB         7.7960    7.5620   20.4400 C.3   473  THR473      0.1770
    197  OG1        8.2330    7.6960   21.7980 O.3   473  THR473     -0.2211
    198  CG2        8.9510    7.8500   19.4910 C.3   473  THR473      0.0375
    199  N          2.3540    6.7020   18.9550 N.3   476  ALA476     -0.1245
    200  CA         2.2460    5.3070   18.5250 C.3   476  ALA476      0.1562
    201  C          0.9020    4.5830   18.6760 C.2   476  ALA476      0.2260
    202  O          0.2840    4.2000   17.6820 O.2   476  ALA476     -0.2867
    203  CB         3.3610    4.4800   19.1800 C.3   476  ALA476      0.0290
    204  N         -0.2000    4.3020   28.7390 N.3   613  ASN613     -0.1225
    205  CA         0.5970    3.4350   27.8890 C.3   613  ASN613      0.1785
    206  C          1.8910    4.2270   27.7840 C.2   613  ASN613      0.2597
    207  O          2.2300    4.7620   26.7240 O.2   613  ASN613     -0.2718
    208  CB        -0.0310    3.2650   26.4970 C.3   613  ASN613      0.1169
    209  CG         0.5810    2.1060   25.7230 C.2   613  ASN613      0.2627
    210  OD1        1.7500    1.7730   25.9210 O.2   613  ASN613     -0.2716
    211  ND2       -0.2020    1.4900   24.8340 N.am  613  ASN613     -0.0877
    212  N          2.5920    4.3270   28.9090 N.am  614  VAL614     -0.1966
    213  CA         3.8360    5.0810   28.9780 C.3   614  VAL614      0.1727
    214  C          5.0480    4.2050   29.2760 C.2   614  VAL614      0.2616
    215  O          4.9190    3.0630   29.7180 O.2   614  VAL614     -0.2715
    216  CB         3.7440    6.1790   30.0500 C.3   614  VAL614      0.0290
    217  CG1        2.7030    7.2130   29.6400 C.3   614  VAL614      0.0023
    218  CG2        3.3610    5.5560   31.4030 C.3   614  VAL614      0.0023
    219  N          6.2300    4.7550   29.0320 N.am  615  TRP615     -0.1960
    220  CA         7.4680    4.0290   29.2600 C.3   615  TRP615      0.1771
    221  C          8.6150    5.0200   29.3850 C.2   615  TRP615      0.2620
    222  O          8.4360    6.2190   29.1730 O.2   615  TRP615     -0.2715
    223  CB         7.7240    3.0910   28.0830 C.3   615  TRP615      0.0590
    224  CG         7.8390    3.8190   26.7710 C.ar  615  TRP615      0.0006
    225  CD1        8.9730    4.3300   26.2110 C.ar  615  TRP615      0.0946
    226  CD2        6.7750    4.1040   25.8530 C.ar  615  TRP615      0.0152
    227  NE1        8.6850    4.9100   24.9960 N.ar  615  TRP615     -0.2442
    228  CE2        7.3420    4.7860   24.7540 C.ar  615  TRP615      0.0810
    229  CE3        5.3980    3.8470   25.8530 C.ar  615  TRP615      0.0012
    230  CZ2        6.5790    5.2140   23.6630 C.ar  615  TRP615      0.0191
    231  CZ3        4.6370    4.2710   24.7650 C.ar  615  TRP615      0.0001
    232  CH2        5.2330    4.9470   23.6850 C.ar  615  TRP615      0.0015
    233  N          9.7980    4.5160   29.7150 N.am  616  SER616     -0.1950
    234  CA        10.9610    5.3800   29.8490 C.3   616  SER616      0.1924
    235  C         12.1130    4.9110   28.9570 C.2   616  SER616      0.2314
    236  O         11.9190    3.9340   28.2010 O.2   616  SER616     -0.2863
    237  CB        11.4180    5.4100   31.3030 C.3   616  SER616      0.2116
    238  OG        11.8220    4.1170   31.7100 O.3   616  SER616     -0.2180
@<TRIPOS>BOND
     1   177   176    2
     2   157   156    1
     3    99    98    1
     4    99   102    1
     5    99   100    1
     6   107   106    2
     7   102   103    1
     8   156   155    1
     9   104   100   am
    10   104   105    1
    11   176   175    1
    12   100   101    2
    13   172   171    2
    14   106   105    1
    15   106   109   am
    16   155   154    1
    17   105   108    1
    18   175   178    1
    19   175   174    1
    20   202   201    2
    21   110   109    1
    22   110   111    1
    23   110   113    1
    24   111   112    2
    25   178   179    1
    26   178   180    1
    27   171   174   am
    28   171   170    1
    29   154   153    1
    30   165   164    2
    31   200   201    1
    32   200   199    1
    33   200   203    1
    34   115   113    1
    35   113   114    1
    36   153   150    1
    37    96    95    2
    38   116   117    1
    39   170   173    1
    40   170   169    1
    41   161   160    2
    42   119   118    2
    43   198   196    1
    44   164   169   am
    45   164   163    1
    46    85    86    1
    47    85    82    1
    48    86    88   ar
    49    86    87   ar
    50    95    94    1
    51   118   117    1
    52    88    90   ar
    53    87    89   ar
    54    90    91   ar
    55    89    91   ar
    56   193   196    1
    57   193   192    1
    58   193   194    1
    59   150   151    1
    60   150   149    1
    61    91    92    1
    62   117   120    1
    63   196   197    1
    64   160   162   am
    65   160   159    1
    66   143   141   ar
    67   163   162    1
    68   163   166    1
    69   158   151   am
    70   158   159    1
    71   195   194    2
    72   151   152    2
    73   167   166    1
    74    84    83    2
    75    83    82    1
    76    83    93   am
    77    82    81    1
    78    94    93    1
    79    94    97    1
    80   123   124    1
    81   120   122    1
    82   120   121    1
    83    15    16    2
    84    15    14    1
    85   166   168    1
    86   141   140    1
    87   141   142   ar
    88   140   139    1
    89    61    60    2
    90    81    71   am
    91   124   125    1
    92   124   127    1
    93    14    13    1
    94    14    17    1
    95    62    63    1
    96    62    59    1
    97   125   126    2
    98   125   135   am
    99    71    72    2
   100    71    70    1
   101    60    59    1
   102    60    69   am
   103   181   182    1
   104   135   136    1
   105    58    59    1
   106   139   136    1
   107    63    64    1
   108   127   128    1
   109    70    69    1
   110    70    73    1
   111   136   137    1
   112   230   232   ar
   113   230   228   ar
   114   232   231   ar
   115    64    65    1
   116    17    18    1
   117    29    27    1
   118   129   128   ar
   119   129   131   ar
   120    65    66    2
   121   184   183    2
   122    19    18   ar
   123    19    21   ar
   124   128   130   ar
   125   182   183    1
   126   182   185    1
   127    18    20   ar
   128    66    68    1
   129    66    67    1
   130   228   227   ar
   131   228   226   ar
   132   231   229   ar
   133    73    74    1
   134   211   209   am
   135   131   133   ar
   136   227   225   ar
   137   137   144   am
   138   137   138    2
   139    75    74   ar
   140    75    77   ar
   141    27    28    1
   142    27    24    1
   143    21    22   ar
   144   185   186    1
   145    74    76   ar
   146   130   132   ar
   147   144   145    1
   148    77    79   ar
   149   209   210    2
   150   209   208    1
   151    20    22   ar
   152   226   229   ar
   153   226   224   ar
   154   133   132   ar
   155   133   134    1
   156    76    78   ar
   157   225   224   ar
   158    79    78   ar
   159    79    80    1
   160    24    23    1
   161    24    25    1
   162   208   205    1
   163   207   206    2
   164   224   223    1
   165   186   187    1
   166   147   146    2
   167   145   148    1
   168   145   146    1
   169   188   187    1
   170   188   189    2
   171    25    26    2
   172    25    30   am
   173   206   205    1
   174   206   212   am
   175   191   189    1
   176   205   204    1
   177   189   190    1
   178   223   220    1
   179   236   235    2
   180    30    31    1
   181    56    55    1
   182   212   213    1
   183   235   234    1
   184   213   214    1
   185   213   216    1
   186    50    49    2
   187   219   220    1
   188   219   214   am
   189    36    35    2
   190    37    35   am
   191   222   221    2
   192   220   221    1
   193   214   215    2
   194   221   233   am
   195    35    34    1
   196   217   216    1
   197   233   234    1
   198    31    34    1
   199    31    32    1
   200    54    55    2
   201    54    53    1
   202    51    52    1
   203    51    48    1
   204   234   237    1
   205    55    57    1
   206   216   218    1
   207    49    48    1
   208    52    53    1
   209    12    11    1
   210    33    32    2
   211    48    47    1
   212   237   238    1
   213    11    10   ar
   214    11     9   ar
   215    10     8   ar
   216     9     7   ar
   217    41    40    2
   218     8     6   ar
   219    40    39    1
   220     7     6   ar
   221    46    44   ar
   222     6     5    1
   223    39    38    1
   224    39    42    1
   225    44    43    1
   226    44    45   ar
   227    43    42    1
   228     5     2    1
   229     3     2    1
   230     3     4    2
   231     2     1    1
