@<TRIPOS>MOLECULE
tmp/1ja7A00.pdb
 137 135 0 0 0
SMALL
GASTEIGER

@<TRIPOS>ATOM
      1  N          4.3950   24.0730   14.1540 N.3    35  GLU35      -0.1245
      2  CA         5.1270   23.3940   15.2470 C.3    35  GLU35       0.1567
      3  C          5.8490   22.0980   14.8480 C.2    35  GLU35       0.2260
      4  O          6.8200   21.7120   15.4990 O.2    35  GLU35      -0.2867
      5  CB         4.2720   23.2250   16.4970 C.3    35  GLU35       0.0388
      6  CG         4.0920   24.5090   17.3100 C.3    35  GLU35       0.1160
      7  CD         5.3690   24.9540   18.0330 C.2    35  GLU35       0.3649
      8  OE1        6.4320   24.3220   17.8280 O.co2  35  GLU35      -0.2457
      9  OE2        5.3020   25.9360   18.8160 O.co2  35  GLU35      -0.2457
     10  N         15.1560   20.6190   23.4110 N.3    46  ASN46      -0.1240
     11  CA        15.4000   22.0490   23.5440 C.3    46  ASN46       0.1653
     12  C         16.7280   22.3190   24.2220 C.2    46  ASN46       0.2266
     13  O         17.3080   21.4200   24.8160 O.2    46  ASN46      -0.2867
     14  CB        14.3000   22.6130   24.3590 C.3    46  ASN46       0.1155
     15  CG        13.0100   22.4500   23.6400 C.2    46  ASN46       0.2627
     16  OD1       12.9500   22.6240   22.4320 O.2    46  ASN46      -0.2716
     17  ND2       11.9900   22.0580   24.3880 N.am   46  ASN46      -0.0877
     18  N         17.0930   23.7220   26.7060 N.3    48  ASP48      -0.1239
     19  CA        16.6390   23.5390   28.0670 C.3    48  ASP48       0.1674
     20  C         16.5050   22.0570   28.4280 C.2    48  ASP48       0.2266
     21  O         16.1180   21.7110   29.5340 O.2    48  ASP48      -0.2867
     22  CB        15.3100   24.2520   28.1730 C.3    48  ASP48       0.1410
     23  CG        14.3790   23.6680   27.1430 C.2    48  ASP48       0.3668
     24  OD1       14.3260   22.4330   27.0590 O.co2  48  ASP48      -0.2456
     25  OD2       13.8170   24.4420   26.3490 O.co2  48  ASP48      -0.2456
     26  N         14.4030   19.8500   27.7580 N.3    50  SER50      -0.1217
     27  CA        13.1130   19.2030   27.8220 C.3    50  SER50       0.1889
     28  C         12.8390   18.7960   26.4250 C.2    50  SER50       0.2288
     29  O         12.6900   19.6570   25.5510 O.2    50  SER50      -0.2866
     30  CB        12.0260   20.1830   28.2650 C.3    50  SER50       0.2089
     31  OG        11.7530   21.1250   27.2390 O.3    50  SER50      -0.2183
     32  N         10.8460   18.0220   23.3870 N.3    52  ASP52      -0.1239
     33  CA         9.4990   18.3110   22.9670 C.3    52  ASP52       0.1674
     34  C          9.0700   17.0830   22.1960 C.2    52  ASP52       0.2266
     35  O          9.9420   16.3250   21.7680 O.2    52  ASP52      -0.2867
     36  CB         9.4870   19.5500   22.0810 C.3    52  ASP52       0.1410
     37  CG         9.8710   20.8210   22.8340 C.2    52  ASP52       0.3668
     38  OD1        9.5610   20.9400   24.0430 O.co2  52  ASP52      -0.2456
     39  OD2       10.4970   21.6970   22.2080 O.co2  52  ASP52      -0.2456
     40  N          2.8190   18.5790   18.0870 N.3    56  LEU56      -0.1231
     41  CA         2.4100   19.4640   19.1480 C.3    56  LEU56       0.1693
     42  C          3.5980   20.1580   19.8190 C.2    56  LEU56       0.2592
     43  O          3.4500   21.2430   20.3720 O.2    56  LEU56      -0.2718
     44  CB         1.5990   18.6830   20.1910 C.3    56  LEU56       0.0284
     45  CG         0.2530   18.1500   19.7020 C.3    56  LEU56       0.0019
     46  CD1       -0.4430   17.3470   20.7830 C.3    56  LEU56       0.0001
     47  CD2       -0.6260   19.2790   19.2090 C.3    56  LEU56       0.0001
     48  N          4.7840   19.5600   19.7510 N.am   57  GLN57      -0.1966
     49  CA         5.9590   20.1660   20.3840 C.3    57  GLN57       0.1733
     50  C          5.8100   20.3250   21.9060 C.2    57  GLN57       0.2616
     51  O          5.9660   21.4300   22.4300 O.2    57  GLN57      -0.2715
     52  CB         6.2200   21.5560   19.7710 C.3    57  GLN57       0.0408
     53  CG         6.6110   21.5580   18.3070 C.3    57  GLN57       0.0908
     54  CD         8.0420   21.1280   18.0730 C.2    57  GLN57       0.2608
     55  OE1        8.8660   21.9310   17.6530 O.2    57  GLN57      -0.2717
     56  NE2        8.3430   19.8660   18.3460 N.am   57  GLN57      -0.0878
     57  N          5.5210   19.2220   22.6130 N.am   58  ILE58      -0.1963
     58  CA         5.3650   19.2390   24.0800 C.3    58  ILE58       0.1727
     59  C          6.6510   18.7910   24.7950 C.2    58  ILE58       0.2616
     60  O          7.2120   17.7570   24.4710 O.2    58  ILE58      -0.2715
     61  CB         4.2510   18.2760   24.5170 C.3    58  ILE58       0.0290
     62  CG1        2.8510   18.6390   24.0220 C.3    58  ILE58       0.0022
     63  CG2        4.2660   18.1050   26.0340 C.3    58  ILE58       0.0023
     64  CD1        1.8560   17.4970   24.1330 C.3    58  ILE58       0.0001
     65  N          7.1050   19.5430   25.7990 N.am   59  ASN59      -0.1972
     66  CA         8.3480   19.1710   26.4870 C.3    59  ASN59       0.1688
     67  C          8.1210   18.1430   27.5970 C.2    59  ASN59       0.2292
     68  O          7.1300   18.1910   28.3350 O.2    59  ASN59      -0.2864
     69  CB         9.0460   20.4020   27.0510 C.3    59  ASN59       0.1181
     70  CG         8.1420   21.1660   27.9880 C.2    59  ASN59       0.2629
     71  OD1        8.3420   21.1780   29.2000 O.2    59  ASN59      -0.2716
     72  ND2        7.1280   21.7920   27.4250 N.am   59  ASN59      -0.0877
     73  N          9.5290   17.9390   30.1660 N.3    61  ARG61      -0.1231
     74  CA         9.7240   18.6730   31.3980 C.3    61  ARG61       0.1694
     75  C          8.4400   18.7850   32.2330 C.2    61  ARG61       0.2592
     76  O          8.3770   18.2530   33.3550 O.2    61  ARG61      -0.2718
     77  CB        10.1810   20.0850   30.9770 C.3    61  ARG61       0.0321
     78  CG        10.4360   21.1160   32.0410 C.3    61  ARG61       0.0489
     79  CD        10.7710   22.4570   31.3680 C.3    61  ARG61       0.2205
     80  NE        12.1350   22.9020   31.6150 N.pl3  61  ARG61      -0.0865
     81  CZ        13.2020   22.6230   30.8600 C.cat  61  ARG61       0.5346
     82  NH1       14.3830   22.4560   31.4370 N.pl3  61  ARG61       0.1354
     83  NH2       13.1040   22.5290   29.5400 N.pl3  61  ARG61       0.1354
     84  N          7.4040   19.4410   31.6780 N.am   62  TRP62      -0.1962
     85  CA         6.1670   19.6740   32.4120 C.3    62  TRP62       0.1771
     86  C          5.0930   18.6330   32.1700 C.2    62  TRP62       0.2619
     87  O          4.4240   18.1890   33.1090 O.2    62  TRP62      -0.2715
     88  CB         5.5530   21.0400   32.0230 C.3    62  TRP62       0.0590
     89  CG         6.3210   22.2470   32.4410 C.ar   62  TRP62       0.0006
     90  CD1        7.0950   23.0340   31.6360 C.ar   62  TRP62       0.0946
     91  CD2        6.4020   22.8230   33.7530 C.ar   62  TRP62       0.0152
     92  NE1        7.6520   24.0590   32.3640 N.ar   62  TRP62      -0.2442
     93  CE2        7.2470   23.9540   33.6630 C.ar   62  TRP62       0.0810
     94  CE3        5.8500   22.4970   34.9910 C.ar   62  TRP62       0.0012
     95  CZ2        7.5520   24.7550   34.7610 C.ar   62  TRP62       0.0191
     96  CZ3        6.1550   23.2990   36.0830 C.ar   62  TRP62       0.0001
     97  CH2        6.9980   24.4130   35.9600 C.ar   62  TRP62       0.0015
     98  N          4.9120   18.2380   30.9210 N.am   63  TRP63      -0.1974
     99  CA         3.7780   17.4150   30.5980 C.3    63  TRP63       0.1640
    100  C          3.9340   15.8910   30.5110 C.2    63  TRP63       0.2290
    101  O          3.0170   15.1920   30.9630 O.2    63  TRP63      -0.2864
    102  CB         3.1550   17.9860   29.3240 C.3    63  TRP63       0.0576
    103  CG         2.6910   19.3830   29.6080 C.ar   63  TRP63       0.0006
    104  CD1        3.3040   20.5260   29.1960 C.ar   63  TRP63       0.0946
    105  CD2        1.6200   19.7920   30.4740 C.ar   63  TRP63       0.0152
    106  NE1        2.6440   21.6250   29.6900 N.ar   63  TRP63      -0.2442
    107  CE2        1.6090   21.2060   30.4830 C.ar   63  TRP63       0.0810
    108  CE3        0.6470   19.1100   31.2180 C.ar   63  TRP63       0.0012
    109  CZ2        0.6700   21.9430   31.2030 C.ar   63  TRP63       0.0191
    110  CZ3       -0.2820   19.8460   31.9310 C.ar   63  TRP63       0.0001
    111  CH2       -0.2640   21.2460   31.9180 C.ar   63  TRP63       0.0015
    112  N          1.0000   28.3070   26.4890 N.3   107  ALA107     -0.1231
    113  CA         1.9880   27.2620   26.4410 C.3   107  ALA107      0.1694
    114  C          2.5970   27.2160   25.0530 C.2   107  ALA107      0.2592
    115  O          3.8060   27.1490   24.9060 O.2   107  ALA107     -0.2718
    116  CB         1.3630   25.9200   26.7980 C.3   107  ALA107      0.0304
    117  N          1.7540   27.3200   24.0310 N.am  108  TRP108     -0.1962
    118  CA         2.2610   27.2360   22.6700 C.3   108  TRP108      0.1771
    119  C          2.8750   28.5580   22.2870 C.2   108  TRP108      0.2619
    120  O          2.2910   29.6210   22.5040 O.2   108  TRP108     -0.2715
    121  CB         1.1430   26.9040   21.6850 C.3   108  TRP108      0.0590
    122  CG         0.7710   25.4550   21.7110 C.ar  108  TRP108      0.0006
    123  CD1        1.3100   24.4290   20.9980 C.ar  108  TRP108      0.0946
    124  CD2       -0.2680   24.8920   22.5220 C.ar  108  TRP108      0.0152
    125  NE1        0.6770   23.2600   21.3260 N.ar  108  TRP108     -0.2442
    126  CE2       -0.3010   23.5220   22.2580 C.ar  108  TRP108      0.0810
    127  CE3       -1.1720   25.4300   23.4510 C.ar  108  TRP108      0.0012
    128  CZ2       -1.2070   22.6690   22.8890 C.ar  108  TRP108      0.0191
    129  CZ3       -2.0630   24.5840   24.0770 C.ar  108  TRP108      0.0001
    130  CH2       -2.0780   23.2180   23.7950 C.ar  108  TRP108      0.0015
    131  N          4.0590   28.4710   21.7170 N.am  109  VAL109     -0.1977
    132  CA         4.8110   29.6330   21.3430 C.3   109  VAL109      0.1596
    133  C          4.5600   30.0950   19.9030 C.2   109  VAL109      0.2287
    134  O          4.3640   31.2950   19.6680 O.2   109  VAL109     -0.2864
    135  CB         6.3200   29.3700   21.5700 C.3   109  VAL109      0.0276
    136  CG1        6.8300   28.3150   20.6030 C.3   109  VAL109      0.0022
    137  CG2        7.1340   30.6490   21.4800 C.3   109  VAL109      0.0022
@<TRIPOS>BOND
     1     1     2    1
     2     3     2    1
     3     3     4    2
     4     2     5    1
     5     5     6    1
     6     6     7    1
     7    55    54    2
     8     8     7   ar
     9     7     9   ar
    10    54    53    1
    11    54    56   am
    12    40    41    1
    13    53    52    1
    14    41    42    1
    15    41    44    1
    16    47    45    1
    17   134   133    2
    18    45    44    1
    19    45    46    1
    20    48    42   am
    21    48    49    1
    22    52    49    1
    23    42    43    2
    24   133   132    1
    25    49    50    1
    26   136   135    1
    27   123   125   ar
    28   123   122   ar
    29   125   126   ar
    30   132   135    1
    31   132   131    1
    32   137   135    1
    33   121   122    1
    34   121   118    1
    35   122   124   ar
    36   131   119   am
    37    35    34    2
    38    50    51    2
    39    50    57   am
    40    36    37    1
    41    36    33    1
    42    34    33    1
    43    39    37   ar
    44   126   124   ar
    45   126   128   ar
    46   119   120    2
    47   119   118    1
    48    16    15    2
    49   124   127   ar
    50    57    58    1
    51   118   117    1
    52    37    38   ar
    53   128   130   ar
    54    33    32    1
    55    10    11    1
    56   127   129   ar
    57    11    12    1
    58    11    14    1
    59    15    14    1
    60    15    17   am
    61   130   129   ar
    62    62    64    1
    63    62    61    1
    64   117   114   am
    65    58    61    1
    66    58    59    1
    67    12    13    2
    68    60    59    2
    69    61    63    1
    70    59    65   am
    71   115   114    2
    72   114   113    1
    73    29    28    2
    74    65    66    1
    75    25    23   ar
    76    28    27    1
    77   113   112    1
    78   113   116    1
    79    66    69    1
    80    66    67    1
    81    18    19    1
    82    69    70    1
    83    24    23   ar
    84    23    22    1
    85    31    30    1
    86    72    70   am
    87    67    68    2
    88    26    27    1
    89    27    30    1
    90    70    71    2
    91    19    22    1
    92    19    20    1
    93    20    21    2
    94   104   103   ar
    95   104   106   ar
    96   102   103    1
    97   102    99    1
    98    83    81    1
    99   103   105   ar
   100   106   107   ar
   101    73    74    1
   102   105   107   ar
   103   105   108   ar
   104   107   109   ar
   105   100    99    1
   106   100   101    2
   107    99    98    1
   108    81    82    1
   109    81    80    2
   110    98    86   am
   111    77    74    1
   112    77    78    1
   113   109   111   ar
   114   108   110   ar
   115    79    80    1
   116    79    78    1
   117    74    75    1
   118    90    92   ar
   119    90    89   ar
   120    84    75   am
   121    84    85    1
   122   111   110   ar
   123    88    85    1
   124    88    89    1
   125    86    85    1
   126    86    87    2
   127    75    76    2
   128    92    93   ar
   129    89    91   ar
   130    93    91   ar
   131    93    95   ar
   132    91    94   ar
   133    95    97   ar
   134    94    96   ar
   135    97    96   ar
