@<TRIPOS>MOLECULE
tmp/1ja9A01.pdb
 123 118 0 0 0
SMALL
GASTEIGER

@<TRIPOS>ATOM
      1  N         98.8730   14.0350   19.1750 N.3    95  GLU95      -0.1245
      2  CA       100.0340   13.6230   18.4040 C.3    95  GLU95       0.1567
      3  C        100.9840   13.0470   19.4520 C.2    95  GLU95       0.2260
      4  O        100.7990   13.2360   20.6560 O.2    95  GLU95      -0.2867
      5  CB       100.6960   14.8170   17.7320 C.3    95  GLU95       0.0388
      6  CG       100.5240   14.8310   16.2060 C.3    95  GLU95       0.1160
      7  CD       101.3790   13.7820   15.4790 C.2    95  GLU95       0.3649
      8  OE1      101.6690   14.0010   14.2830 O.co2  95  GLU95      -0.2457
      9  OE2      101.7830   12.7790   16.0970 O.co2  95  GLU95      -0.2457
     10  N         94.0740    9.6090   10.1520 N.3   141  SER141     -0.1202
     11  CA        95.0590   10.5830    9.6740 C.3   141  SER141      0.2020
     12  C         95.7900    9.9200    8.5310 C.2   141  SER141      0.2619
     13  O         95.9070    8.6870    8.5240 O.2   141  SER141     -0.2717
     14  CB        96.1180   10.9080   10.7620 C.3   141  SER141      0.2103
     15  OG        97.2260   11.6260   10.1970 O.3   141  SER141     -0.2182
     16  N         96.3260   10.6990    7.5870 N.am  142  ILE142     -0.1965
     17  CA        97.1130   10.0510    6.5190 C.3   142  ILE142      0.1727
     18  C         98.3750    9.4340    7.1380 C.2   142  ILE142      0.2616
     19  O         98.9810    8.5450    6.5590 O.2   142  ILE142     -0.2715
     20  CB        97.5120   10.9900    5.3820 C.3   142  ILE142      0.0290
     21  CG1       98.2870   12.1900    5.9150 C.3   142  ILE142      0.0022
     22  CG2       96.2740   11.3910    4.6200 C.3   142  ILE142      0.0023
     23  CD1       98.7100   13.1310    4.8030 C.3   142  ILE142      0.0001
     24  N         98.7470    9.8780    8.3430 N.am  143  ALA143     -0.1977
     25  CA        99.9100    9.2950    8.9950 C.3   143  ALA143      0.1597
     26  C         99.6780    7.7960    9.3010 C.2   143  ALA143      0.2287
     27  O        100.6490    7.0480    9.5020 O.2   143  ALA143     -0.2864
     28  CB       100.2670   10.0660   10.2840 C.3   143  ALA143      0.0319
     29  N        101.3060    6.8490   17.2780 N.3   155  TYR155     -0.1241
     30  CA       100.3120    7.6300   16.5500 C.3   155  TYR155      0.1605
     31  C         99.7840    6.8560   15.3400 C.2   155  TYR155      0.2264
     32  O         98.5730    6.7260   15.1700 O.2   155  TYR155     -0.2867
     33  CB       100.8760    8.9680   16.1120 C.3   155  TYR155      0.0534
     34  CG        99.8290    9.8990   15.5500 C.ar  155  TYR155     -0.0201
     35  CD1       99.0070   10.6480   16.4060 C.ar  155  TYR155     -0.0009
     36  CD2       99.6780   10.0760   14.1510 C.ar  155  TYR155     -0.0009
     37  CE1       98.0660   11.5640   15.8870 C.ar  155  TYR155      0.0417
     38  CE2       98.7470   10.9870   13.6310 C.ar  155  TYR155      0.0417
     39  CZ        97.9460   11.7290   14.5080 C.ar  155  TYR155      0.1957
     40  OH        97.0450   12.6480   14.0180 O.3   155  TYR155     -0.2866
     41  N         92.6290   13.2210    7.5150 N.3   185  PRO185     -0.2102
     42  CA        93.1620   14.4870    7.0150 C.3   185  PRO185      0.1504
     43  C         94.6720   14.5140    6.7970 C.2   185  PRO185      0.2576
     44  O         95.4240   13.7060    7.3790 O.2   185  PRO185     -0.2718
     45  CB        92.7940   15.4950    8.1350 C.3   185  PRO185      0.0282
     46  CG        91.6520   14.8060    8.8910 C.3   185  PRO185      0.0208
     47  CD        92.1280   13.3690    8.8960 C.3   185  PRO185      0.0893
     48  N         95.0640   15.4260    5.9080 N.am  186  GLY186     -0.1943
     49  CA        96.4610   15.7250    5.6780 C.3   186  GLY186      0.2014
     50  C         96.6620   16.8800    6.6650 C.2   186  GLY186      0.2639
     51  O         95.7940   17.0950    7.5240 O.2   186  GLY186     -0.2714
     52  N         97.7320   17.6630    6.5260 N.am  187  GLY187     -0.1939
     53  CA        97.9860   18.7560    7.4650 C.3   187  GLY187      0.2014
     54  C         96.8820   19.8020    7.4670 C.2   187  GLY187      0.2638
     55  O         96.4410   20.2260    6.3950 O.2   187  GLY187     -0.2714
     56  N         96.4340   20.2220    8.6540 N.am  188  VAL188     -0.1977
     57  CA        95.3620   21.2210    8.7730 C.3   188  VAL188      0.1596
     58  C         95.8350   22.2170    9.8380 C.2   188  VAL188      0.2287
     59  O         96.1940   21.8120   10.9440 O.2   188  VAL188     -0.2864
     60  CB        94.0390   20.5820    9.2570 C.3   188  VAL188      0.0276
     61  CG1       92.9210   21.6580    9.3540 C.3   188  VAL188      0.0022
     62  CG2       93.6030   19.4490    8.2930 C.3   188  VAL188      0.0022
     63  N         97.8540   21.6180   16.9220 N.3   192  MET192     -0.1230
     64  CA        98.6000   20.3810   16.7030 C.3   192  MET192      0.1702
     65  C         99.5250   20.5270   15.4850 C.2   192  MET192      0.2592
     66  O        100.6700   20.0600   15.4970 O.2   192  MET192     -0.2718
     67  CB        97.6580   19.2010   16.4840 C.3   192  MET192      0.0401
     68  CG        98.3840   17.8780   16.2100 C.3   192  MET192      0.0596
     69  SD        97.2180   16.5290   15.8500 S.3   192  MET192     -0.1393
     70  CE        96.4570   16.2760   17.5020 C.3   192  MET192      0.0692
     71  N         99.0300   21.1680   14.4350 N.am  193  PHE193     -0.1976
     72  CA        99.8110   21.3700   13.2140 C.3   193  PHE193      0.1639
     73  C        101.0070   22.2810   13.5030 C.2   193  PHE193      0.2290
     74  O        102.1280   22.0120   13.0750 O.2   193  PHE193     -0.2864
     75  CB        98.9180   21.9970   12.1510 C.3   193  PHE193      0.0560
     76  CG        99.6210   22.3720   10.8730 C.ar  193  PHE193     -0.0200
     77  CD1       99.5290   21.5350    9.7440 C.ar  193  PHE193     -0.0042
     78  CD2      100.3000   23.6000   10.7630 C.ar  193  PHE193     -0.0042
     79  CE1      100.0940   21.9030    8.5180 C.ar  193  PHE193     -0.0003
     80  CE2      100.8720   23.9910    9.5470 C.ar  193  PHE193     -0.0003
     81  CZ       100.7720   23.1390    8.4100 C.ar  193  PHE193     -0.0000
     82  N        103.5420   20.1570   15.4200 N.3   196  ASN196     -0.1225
     83  CA       104.0470   18.9520   14.7860 C.3   196  ASN196      0.1785
     84  C        104.3360   18.9370   13.2950 C.2   196  ASN196      0.2597
     85  O        104.8910   17.9360   12.8090 O.2   196  ASN196     -0.2718
     86  CB       103.0490   17.8160   15.0730 C.3   196  ASN196      0.1169
     87  CG       102.8710   17.5400   16.5640 C.2   196  ASN196      0.2627
     88  OD1      103.6350   16.7660   17.1550 O.2   196  ASN196     -0.2716
     89  ND2      101.8630   18.1670   17.1810 N.am  196  ASN196     -0.0877
     90  N        103.9590   19.9840   12.5650 N.am  197  SER197     -0.1952
     91  CA       104.1200   19.9910   11.1090 C.3   197  SER197      0.1924
     92  C        105.5350   19.8350   10.5550 C.2   197  SER197      0.2314
     93  O        105.7190   19.3400    9.4470 O.2   197  SER197     -0.2863
     94  CB       103.4440   21.2180   10.4990 C.3   197  SER197      0.2116
     95  OG       103.8960   22.4350   11.1020 O.3   197  SER197     -0.2180
     96  N        106.5250   16.5600    9.0660 N.3   200  TYR200     -0.1241
     97  CA       105.9230   16.2080    7.7790 C.3   200  TYR200      0.1605
     98  C        106.4060   17.0370    6.5940 C.2   200  TYR200      0.2264
     99  O        106.1870   16.6720    5.4370 O.2   200  TYR200     -0.2867
    100  CB       104.4020   16.3370    7.9020 C.3   200  TYR200      0.0534
    101  CG       103.8150   15.4430    8.9820 C.ar  200  TYR200     -0.0201
    102  CD1      103.6410   15.9030   10.2970 C.ar  200  TYR200     -0.0009
    103  CD2      103.3950   14.1440    8.6790 C.ar  200  TYR200     -0.0009
    104  CE1      103.0580   15.1120   11.2660 C.ar  200  TYR200      0.0417
    105  CE2      102.8060   13.3380    9.6540 C.ar  200  TYR200      0.0417
    106  CZ       102.6340   13.8300   10.9320 C.ar  200  TYR200      0.1957
    107  OH       101.9700   13.0490   11.8350 O.3   200  TYR200     -0.2866
    108  N        104.7200   22.8100    2.6670 N.3   217  LEU217     -0.1245
    109  CA       103.5410   21.9390    2.5980 C.3   217  LEU217      0.1561
    110  C        102.5770   22.3970    1.4930 C.2   217  LEU217      0.2260
    111  O        102.1500   21.5990    0.6590 O.2   217  LEU217     -0.2867
    112  CB       102.8570   21.8560    3.9630 C.3   217  LEU217      0.0270
    113  CG       103.6510   21.0880    5.0330 C.3   217  LEU217      0.0019
    114  CD1      102.9730   21.1890    6.3700 C.3   217  LEU217      0.0001
    115  CD2      103.8050   19.6360    4.6290 C.3   217  LEU217      0.0001
    116  N         99.6770   16.6610    1.2620 N.3   259  ILE259     -0.1245
    117  CA       100.2060   15.9040    2.4000 C.3   259  ILE259      0.1561
    118  C         99.8860   16.4800    3.7820 C.2   259  ILE259      0.2260
    119  O        100.6010   16.1180    4.7440 O.2   259  ILE259     -0.2867
    120  CB       101.7480   15.7730    2.2990 C.3   259  ILE259      0.0252
    121  CG1      102.3960   17.1580    2.1910 C.3   259  ILE259      0.0019
    122  CG2      102.1030   14.9210    1.1070 C.3   259  ILE259      0.0019
    123  CD1      103.9280   17.1420    2.0040 C.3   259  ILE259      0.0001
@<TRIPOS>BOND
     1   111   110    2
     2   122   120    1
     3   116   117    1
     4   110   109    1
     5   123   121    1
     6   121   120    1
     7   120   117    1
     8   117   118    1
     9   109   108    1
    10   109   112    1
    11   118   119    2
    12   112   113    1
    13    22    20    1
    14   115   113    1
    15    23    21    1
    16   113   114    1
    17    20    21    1
    18    20    17    1
    19    99    98    2
    20    49    48    1
    21    49    50    1
    22    48    43   am
    23    55    54    2
    24    17    18    1
    25    17    16    1
    26    52    50   am
    27    52    53    1
    28    19    18    2
    29    98    97    1
    30    50    51    2
    31    43    42    1
    32    43    44    2
    33    42    41    1
    34    42    45    1
    35    18    24   am
    36    53    54    1
    37    54    56   am
    38    41    47    1
    39    16    12   am
    40    97   100    1
    41    97    96    1
    42   100   101    1
    43    45    46    1
    44    62    60    1
    45    24    25    1
    46    81    79   ar
    47    81    80   ar
    48    79    77   ar
    49    13    12    2
    50    12    11    1
    51    56    57    1
    52   103   101   ar
    53   103   105   ar
    54    57    60    1
    55    57    58    1
    56    46    47    1
    57   101   102   ar
    58    25    26    1
    59    25    28    1
    60    60    61    1
    61    26    27    2
    62    93    92    2
    63    80    78   ar
    64   105   106   ar
    65    11    10    1
    66    11    14    1
    67    77    76   ar
    68    58    59    2
    69    15    14    1
    70   102   104   ar
    71    94    95    1
    72    94    91    1
    73    92    91    1
    74    78    76   ar
    75    76    75    1
    76   106   104   ar
    77   106   107    1
    78    91    90    1
    79    75    72    1
    80    90    84   am
    81    85    84    2
    82    74    73    2
    83    72    73    1
    84    72    71    1
    85    84    83    1
    86    38    36   ar
    87    38    39   ar
    88    40    39    1
    89    36    34   ar
    90     8     7   ar
    91    71    65   am
    92    39    37   ar
    93    83    86    1
    94    83    82    1
    95    86    87    1
    96    32    31    2
    97    31    30    1
    98     7     9   ar
    99     7     6    1
   100    65    66    2
   101    65    64    1
   102    34    33    1
   103    34    35   ar
   104    69    68    1
   105    69    70    1
   106    37    35   ar
   107    33    30    1
   108     6     5    1
   109    68    67    1
   110    67    64    1
   111    30    29    1
   112    87    88    2
   113    87    89   am
   114    64    63    1
   115     5     2    1
   116     2     1    1
   117     2     3    1
   118     3     4    2
