@<TRIPOS>MOLECULE
tmp/1jakA00.pdb
 164 161 0 0 0
SMALL
GASTEIGER

@<TRIPOS>ATOM
      1  N         -0.3230   72.6600    1.9040 N.3   155  ARG155     -0.1245
      2  CA         0.1840   73.5060    2.9890 C.3   155  ARG155      0.1563
      3  C          1.3990   74.2910    2.5020 C.2   155  ARG155      0.2260
      4  O          1.5080   75.4930    2.7410 O.2   155  ARG155     -0.2867
      5  CB         0.4850   72.6480    4.2190 C.3   155  ARG155      0.0307
      6  CG        -0.7630   72.4010    5.0820 C.3   155  ARG155      0.0489
      7  CD        -2.0150   72.0750    4.2470 C.3   155  ARG155      0.2205
      8  NE        -3.1900   71.8930    5.1030 N.pl3 155  ARG155     -0.0865
      9  CZ        -3.5100   70.7550    5.7130 C.cat 155  ARG155      0.5346
     10  NH1       -2.7550   69.6730    5.5530 N.pl3 155  ARG155      0.1354
     11  NH2       -4.5610   70.7110    6.5280 N.pl3 155  ARG155      0.1354
     12  N         -2.1490   65.2250   -2.0730 N.3   181  HIS181     -0.1241
     13  CA        -3.1600   66.0500   -1.4090 C.3   181  HIS181      0.1621
     14  C         -3.0980   67.3840   -2.1580 C.2   181  HIS181      0.2264
     15  O         -2.3280   68.2790   -1.8020 O.2   181  HIS181     -0.2867
     16  CB        -2.7870   66.2260    0.0680 C.3   181  HIS181      0.0745
     17  CG        -3.8860   66.7910    0.9140 C.ar  181  HIS181      0.0817
     18  ND1       -4.9660   66.0420    1.3290 N.ar  181  HIS181     -0.2268
     19  CD2       -4.0630   68.0280    1.4330 C.ar  181  HIS181      0.1154
     20  CE1       -5.7610   66.7960    2.0700 C.ar  181  HIS181      0.1986
     21  NE2       -5.2350   68.0050    2.1470 N.ar  181  HIS181     -0.2212
     22  N         -6.5090   72.1530   -0.0700 N.3   184  ASP184     -0.1239
     23  CA        -6.7800   72.2780    1.3490 C.3   184  ASP184      0.1674
     24  C         -7.0960   73.7360    1.6330 C.2   184  ASP184      0.2266
     25  O         -7.4490   74.4860    0.7180 O.2   184  ASP184     -0.2867
     26  CB        -5.5860   71.7910    2.1790 C.3   184  ASP184      0.1410
     27  CG        -6.0130   71.2400    3.5260 C.2   184  ASP184      0.3668
     28  OD1       -6.3940   72.0410    4.4050 O.co2 184  ASP184     -0.2456
     29  OD2       -5.9890   70.0030    3.6970 O.co2 184  ASP184     -0.2456
     30  N        -11.7760   71.3550    4.7810 N.3   243  HIS243     -0.1241
     31  CA       -10.4700   71.6670    4.1910 C.3   243  HIS243      0.1621
     32  C        -10.6230   72.2470    2.7960 C.2   243  HIS243      0.2264
     33  O         -9.8540   71.9300    1.8820 O.2   243  HIS243     -0.2867
     34  CB        -9.6170   70.3980    4.1410 C.3   243  HIS243      0.0745
     35  CG        -9.0620   70.0050    5.4710 C.ar  243  HIS243      0.0817
     36  ND1       -7.9820   70.6450    6.0400 N.ar  243  HIS243     -0.2268
     37  CD2       -9.4640   69.0730    6.3670 C.ar  243  HIS243      0.1154
     38  CE1       -7.7430   70.1250    7.2310 C.ar  243  HIS243      0.1986
     39  NE2       -8.6280   69.1690    7.4540 N.ar  243  HIS243     -0.2212
     40  N         -6.8690   73.5200   11.5440 N.3   269  VAL269     -0.1245
     41  CA        -7.7400   72.7090   10.6960 C.3   269  VAL269      0.1561
     42  C         -9.1620   72.6350   11.2510 C.2   269  VAL269      0.2260
     43  O         -9.3890   72.9010   12.4320 O.2   269  VAL269     -0.2867
     44  CB        -7.2360   71.2410   10.5770 C.3   269  VAL269      0.0252
     45  CG1       -5.7900   71.2110   10.1110 C.3   269  VAL269      0.0019
     46  CG2       -7.3940   70.5140   11.9150 C.3   269  VAL269      0.0019
     47  N        -12.1230   64.3430    5.8710 N.3   306  ASP306     -0.1225
     48  CA       -11.5740   64.5070    7.2090 C.3   306  ASP306      0.1805
     49  C        -11.8300   65.8790    7.8110 C.2   306  ASP306      0.2597
     50  O        -11.9530   66.8790    7.1000 O.2   306  ASP306     -0.2718
     51  CB       -10.0620   64.3100    7.1740 C.3   306  ASP306      0.1424
     52  CG        -9.3740   65.3530    6.3070 C.2   306  ASP306      0.3668
     53  OD1       -9.7140   65.4270    5.1100 O.co2 306  ASP306     -0.2456
     54  OD2       -8.5120   66.1050    6.8150 O.co2 306  ASP306     -0.2456
     55  N        -11.8930   65.9070    9.1350 N.am  307  GLU307     -0.1979
     56  CA       -12.0410   67.1450    9.8850 C.3   307  GLU307      0.1602
     57  C        -13.0350   68.1670    9.3320 C.2   307  GLU307      0.2287
     58  O        -12.7340   69.3580    9.2470 O.2   307  GLU307     -0.2864
     59  CB       -10.6450   67.7690   10.0320 C.3   307  GLU307      0.0415
     60  CG        -9.6270   66.7780   10.6080 C.3   307  GLU307      0.1163
     61  CD        -8.1880   67.2660   10.5580 C.2   307  GLU307      0.3649
     62  OE1       -7.8600   68.1180    9.7060 O.co2 307  GLU307     -0.2457
     63  OE2       -7.3720   66.7760   11.3630 O.co2 307  GLU307     -0.2457
     64  N        -11.0980   59.5610    3.7490 N.3   337  TRP337     -0.1241
     65  CA       -10.5120   59.3140    5.0600 C.3   337  TRP337      0.1605
     66  C        -11.5760   58.5170    5.8120 C.2   337  TRP337      0.2264
     67  O        -12.7380   58.5100    5.3950 O.2   337  TRP337     -0.2867
     68  CB       -10.1730   60.6360    5.7490 C.3   337  TRP337      0.0550
     69  CG        -9.0870   61.3800    5.0100 C.ar  337  TRP337      0.0003
     70  CD1       -9.2440   62.4470    4.1750 C.ar  337  TRP337      0.0946
     71  CD2       -7.6870   61.0680    5.0050 C.ar  337  TRP337      0.0152
     72  NE1       -8.0280   62.8210    3.6460 N.ar  337  TRP337     -0.2442
     73  CE2       -7.0560   61.9910    4.1410 C.ar  337  TRP337      0.0810
     74  CE3       -6.9030   60.1000    5.6510 C.ar  337  TRP337      0.0012
     75  CZ2       -5.6730   61.9760    3.9020 C.ar  337  TRP337      0.0191
     76  CZ3       -5.5250   60.0850    5.4150 C.ar  337  TRP337      0.0001
     77  CH2       -4.9270   61.0200    4.5460 C.ar  337  TRP337      0.0015
     78  N         -6.8780   56.9270    9.8060 N.3   354  TRP354     -0.1241
     79  CA        -5.7750   57.6850   10.3790 C.3   354  TRP354      0.1605
     80  C         -5.9360   57.8580   11.8910 C.2   354  TRP354      0.2264
     81  O         -5.4150   58.8090   12.4830 O.2   354  TRP354     -0.2867
     82  CB        -5.6400   59.0510    9.6860 C.3   354  TRP354      0.0550
     83  CG        -6.8600   59.9330    9.7350 C.ar  354  TRP354      0.0003
     84  CD1       -8.0460   59.7410    9.0820 C.ar  354  TRP354      0.0946
     85  CD2       -6.9870   61.1730   10.4400 C.ar  354  TRP354      0.0152
     86  NE1       -8.9030   60.7900    9.3350 N.ar  354  TRP354     -0.2442
     87  CE2       -8.2770   61.6820   10.1660 C.ar  354  TRP354      0.0810
     88  CE3       -6.1340   61.9070   11.2750 C.ar  354  TRP354      0.0012
     89  CZ2       -8.7370   62.8950   10.6980 C.ar  354  TRP354      0.0191
     90  CZ3       -6.5900   63.1170   11.8040 C.ar  354  TRP354      0.0001
     91  CH2       -7.8820   63.5960   11.5120 C.ar  354  TRP354      0.0015
     92  N          2.2900   58.8460   10.2180 N.3   386  TYR386     -0.1241
     93  CA         2.2260   60.2450    9.8080 C.3   386  TYR386      0.1605
     94  C          3.6610   60.7580    9.9270 C.2   386  TYR386      0.2264
     95  O          4.1700   60.9690   11.0310 O.2   386  TYR386     -0.2867
     96  CB         1.2760   61.0200   10.7290 C.3   386  TYR386      0.0534
     97  CG        -0.1380   61.0980   10.1970 C.ar  386  TYR386     -0.0201
     98  CD1       -0.7040   60.0280    9.4990 C.ar  386  TYR386     -0.0009
     99  CD2       -0.9060   62.2500   10.3720 C.ar  386  TYR386     -0.0009
    100  CE1       -1.9940   60.1070    8.9810 C.ar  386  TYR386      0.0417
    101  CE2       -2.2000   62.3400    9.8580 C.ar  386  TYR386      0.0417
    102  CZ        -2.7330   61.2650    9.1600 C.ar  386  TYR386      0.1957
    103  OH        -3.9880   61.3550    8.6130 O.3   386  TYR386     -0.2866
    104  N          4.9160   63.5910    9.3990 N.3   388  ASP388     -0.1225
    105  CA         5.0740   64.9640    9.8670 C.3   388  ASP388      0.1805
    106  C          5.1130   65.0090   11.3920 C.2   388  ASP388      0.2597
    107  O          5.3800   66.0580   11.9760 O.2   388  ASP388     -0.2718
    108  CB         3.9190   65.8390    9.3660 C.3   388  ASP388      0.1424
    109  CG         2.5740   65.3970    9.9150 C.2   388  ASP388      0.3668
    110  OD1        2.2680   64.1910    9.8360 O.co2 388  ASP388     -0.2456
    111  OD2        1.8180   66.2530   10.4190 O.co2 388  ASP388     -0.2456
    112  N          4.8500   63.8790   12.0420 N.am  389  MET389     -0.1979
    113  CA         4.8490   63.8590   13.5030 C.3   389  MET389      0.1605
    114  C          6.2640   63.8210   14.0750 C.2   389  MET389      0.2287
    115  O          7.1260   63.0880   13.5920 O.2   389  MET389     -0.2864
    116  CB         4.0380   62.6670   14.0250 C.3   389  MET389      0.0413
    117  CG         3.1980   62.9840   15.2660 C.3   389  MET389      0.0598
    118  SD         1.9700   64.2910   14.9840 S.3   389  MET389     -0.1393
    119  CE         0.9600   63.5380   13.6970 C.3   389  MET389      0.0692
    120  N          4.8000   68.1250   13.8260 N.3   399  LEU399     -0.1245
    121  CA         3.7530   68.3840   14.8110 C.3   399  LEU399      0.1561
    122  C          3.7720   67.3680   15.9510 C.2   399  LEU399      0.2260
    123  O          4.4650   66.3520   15.8770 O.2   399  LEU399     -0.2867
    124  CB         2.3850   68.3750   14.1260 C.3   399  LEU399      0.0270
    125  CG         2.2130   69.4040   13.0040 C.3   399  LEU399      0.0019
    126  CD1        0.8030   69.3200   12.4510 C.3   399  LEU399      0.0001
    127  CD2        2.4880   70.8100   13.5330 C.3   399  LEU399      0.0001
    128  N          0.5300   66.7700   17.9830 N.3   401  TRP401     -0.1241
    129  CA        -0.8240   66.5050   18.4600 C.3   401  TRP401      0.1605
    130  C         -1.1440   65.0210   18.6430 C.2   401  TRP401      0.2264
    131  O         -1.9990   64.6650   19.4550 O.2   401  TRP401     -0.2867
    132  CB        -1.8570   67.1460   17.5240 C.3   401  TRP401      0.0550
    133  CG        -1.8910   66.5470   16.1510 C.ar  401  TRP401      0.0003
    134  CD1       -1.1950   66.9680   15.0500 C.ar  401  TRP401      0.0946
    135  CD2       -2.6490   65.4060   15.7360 C.ar  401  TRP401      0.0152
    136  NE1       -1.4780   66.1550   13.9740 N.ar  401  TRP401     -0.2442
    137  CE2       -2.3670   65.1890   14.3690 C.ar  401  TRP401      0.0810
    138  CE3       -3.5410   64.5420   16.3890 C.ar  401  TRP401      0.0012
    139  CZ2       -2.9450   64.1430   13.6400 C.ar  401  TRP401      0.0191
    140  CZ3       -4.1180   63.5030   15.6650 C.ar  401  TRP401      0.0001
    141  CH2       -3.8160   63.3130   14.3020 C.ar  401  TRP401      0.0015
    142  N          2.4960   65.3710    5.7920 N.3   435  TRP435     -0.1241
    143  CA         1.8020   66.6530    5.8010 C.3   435  TRP435      0.1605
    144  C          2.8400   67.7670    5.8420 C.2   435  TRP435      0.2264
    145  O          3.9120   67.6010    6.4250 O.2   435  TRP435     -0.2867
    146  CB         0.8640   66.7150    7.0060 C.3   435  TRP435      0.0550
    147  CG        -0.1730   65.6340    6.9440 C.ar  435  TRP435      0.0003
    148  CD1       -0.1900   64.4620    7.6480 C.ar  435  TRP435      0.0946
    149  CD2       -1.3190   65.6040    6.0860 C.ar  435  TRP435      0.0152
    150  NE1       -1.2790   63.7030    7.2790 N.ar  435  TRP435     -0.2442
    151  CE2       -1.9880   64.3820    6.3230 C.ar  435  TRP435      0.0810
    152  CE3       -1.8460   66.4930    5.1400 C.ar  435  TRP435      0.0012
    153  CZ2       -3.1610   64.0260    5.6470 C.ar  435  TRP435      0.0191
    154  CZ3       -3.0140   66.1410    4.4680 C.ar  435  TRP435      0.0001
    155  CH2       -3.6580   64.9160    4.7270 C.ar  435  TRP435      0.0015
    156  N          2.5090   71.3380    6.9340 N.3   437  GLU437     -0.1245
    157  CA         2.3070   72.5950    7.6470 C.3   437  GLU437      0.1567
    158  C          3.6480   73.2010    8.0610 C.2   437  GLU437      0.2260
    159  O          3.8100   74.4210    8.0590 O.2   437  GLU437     -0.2867
    160  CB         1.4760   72.3880    8.9200 C.3   437  GLU437      0.0388
    161  CG        -0.0240   72.3670    8.7140 C.3   437  GLU437      0.1160
    162  CD        -0.5800   70.9790    8.4740 C.2   437  GLU437      0.3649
    163  OE1        0.1950   70.0610    8.1320 O.co2 437  GLU437     -0.2457
    164  OE2       -1.8070   70.8140    8.6230 O.co2 437  GLU437     -0.2457
@<TRIPOS>BOND
     1    14    15    2
     2    14    13    1
     3    12    13    1
     4    13    16    1
     5    22    23    1
     6    16    17    1
     7    25    24    2
     8    17    18   ar
     9    17    19   ar
    10    18    20   ar
    11    23    24    1
    12    23    26    1
    13    19    21   ar
    14    33    32    2
    15     1     2    1
    16    20    21   ar
    17    26    27    1
    18     3     4    2
    19     3     2    1
    20    32    31    1
    21     2     5    1
    22    27    29   ar
    23    27    28   ar
    24    72    73   ar
    25    72    70   ar
    26    64    65    1
    27    75    73   ar
    28    75    77   ar
    29    73    71   ar
    30    34    31    1
    31    34    35    1
    32    70    69   ar
    33    31    30    1
    34     5     6    1
    35     7     6    1
    36     7     8    1
    37   154   155   ar
    38   154   152   ar
    39    77    76   ar
    40   155   153   ar
    41    71    69   ar
    42    71    74   ar
    43    69    68    1
    44    65    68    1
    45    65    66    1
    46     8     9    2
    47    53    52   ar
    48   152   149   ar
    49    67    66    2
    50    76    74   ar
    51    35    36   ar
    52    35    37   ar
    53    10     9    1
    54   153   151   ar
    55     9    11    1
    56   142   143    1
    57   143   144    1
    58   143   146    1
    59   144   145    2
    60    47    48    1
    61    36    38   ar
    62   149   151   ar
    63   149   147   ar
    64    52    54   ar
    65    52    51    1
    66   151   150   ar
    67    37    39   ar
    68   156   157    1
    69   147   146    1
    70   147   148   ar
    71    50    49    2
    72    51    48    1
    73    48    49    1
    74    38    39   ar
    75   150   148   ar
    76   157   158    1
    77   157   160    1
    78    49    55   am
    79   159   158    2
    80   163   162   ar
    81   162   164   ar
    82   162   161    1
    83   103   102    1
    84   161   160    1
    85   100   102   ar
    86   100    98   ar
    87    84    86   ar
    88    84    83   ar
    89    55    56    1
    90   102   101   ar
    91    58    57    2
    92    57    56    1
    93    86    87   ar
    94   108   105    1
    95   108   109    1
    96   104   105    1
    97    98    97   ar
    98    82    83    1
    99    82    79    1
   100    62    61   ar
   101    83    85   ar
   102    78    79    1
   103    93    94    1
   104    93    92    1
   105    93    96    1
   106   110   109   ar
   107   101    99   ar
   108   105   106    1
   109    56    59    1
   110   109   111   ar
   111    94    95    2
   112    59    60    1
   113    45    44    1
   114    87    85   ar
   115    87    89   ar
   116    97    99   ar
   117    97    96    1
   118    79    80    1
   119    85    88   ar
   120    61    60    1
   121    61    63   ar
   122    44    41    1
   123    44    46    1
   124    41    42    1
   125    41    40    1
   126    89    91   ar
   127    42    43    2
   128    88    90   ar
   129   106   107    2
   130   106   112   am
   131    91    90   ar
   132    80    81    2
   133   112   113    1
   134   126   125    1
   135   125   127    1
   136   125   124    1
   137   113   116    1
   138   113   114    1
   139   115   114    2
   140   139   141   ar
   141   139   137   ar
   142   119   118    1
   143   120   121    1
   144   136   137   ar
   145   136   134   ar
   146   116   117    1
   147   124   121    1
   148   141   140   ar
   149   137   135   ar
   150   121   122    1
   151   118   117    1
   152   134   133   ar
   153   140   138   ar
   154   135   133   ar
   155   135   138   ar
   156   123   122    2
   157   133   132    1
   158   132   129    1
   159   128   129    1
   160   129   130    1
   161   130   131    2
