@<TRIPOS>MOLECULE
tmp/1janA00.pdb
 135 133 0 0 0
SMALL
GASTEIGER

@<TRIPOS>ATOM
      1  N         22.4380   53.0320   64.2090 N.3     4  THR4       -0.1204
      2  CA        22.7610   54.3670   64.6790 C.3     4  THR4        0.1979
      3  C         22.8170   54.2860   66.1960 C.2     4  THR4        0.2459
      4  O         21.9650   53.6300   66.8560 O.2     4  THR4       -0.2732
      5  CB        21.6920   55.3850   64.2540 C.3     4  THR4        0.1783
      6  OG1       21.7010   55.5250   62.8330 O.3     4  THR4       -0.2211
      7  CG2       21.9520   56.7120   64.8590 C.3     4  THR4        0.0376
      8  N         23.9080   54.7860   66.7640 N.am    5  PRO5       -0.2728
      9  CA        24.0260   54.7360   68.2170 C.3     5  PRO5        0.1401
     10  C         22.8820   55.4210   68.9410 C.2     5  PRO5        0.2269
     11  O         22.4920   56.5410   68.5920 O.2     5  PRO5       -0.2865
     12  CB        25.3880   55.4000   68.4940 C.3     5  PRO5        0.0296
     13  CG        25.8850   55.9100   67.1230 C.3     5  PRO5        0.0237
     14  CD        25.2160   55.0360   66.1240 C.3     5  PRO5        0.0939
     15  N         21.8960   73.8270   58.1530 N.3    71  ASP71      -0.1239
     16  CA        22.0210   72.7800   59.1930 C.3    71  ASP71       0.1674
     17  C         23.3920   72.4840   59.8220 C.2    71  ASP71       0.2266
     18  O         23.5610   71.4390   60.4610 O.2    71  ASP71      -0.2867
     19  CB        21.3930   71.4610   58.7120 C.3    71  ASP71       0.1410
     20  CG        22.1780   70.8150   57.5800 C.2    71  ASP71       0.3668
     21  OD1       23.3340   71.2670   57.3630 O.co2  71  ASP71      -0.2456
     22  OD2       21.6600   69.8510   56.9300 O.co2  71  ASP71      -0.2456
     23  N         26.1420   71.5360   58.3870 N.3    73  SER73      -0.1217
     24  CA        26.8980   70.4670   57.7590 C.3    73  SER73       0.1889
     25  C         26.8260   70.8130   56.3140 C.2    73  SER73       0.2288
     26  O         26.0830   70.1950   55.5470 O.2    73  SER73      -0.2866
     27  CB        26.2170   69.1260   57.9810 C.3    73  SER73       0.2089
     28  OG        25.6940   69.0280   59.2830 O.3    73  SER73      -0.2183
     29  N         31.1450   64.2930   49.4530 N.3    81  ILE81      -0.1245
     30  CA        29.8660   63.9560   50.0280 C.3    81  ILE81       0.1561
     31  C         28.7030   64.2350   49.0380 C.2    81  ILE81       0.2260
     32  O         28.6250   65.2720   48.3530 O.2    81  ILE81      -0.2867
     33  CB        29.6640   64.5790   51.4250 C.3    81  ILE81       0.0252
     34  CG1       28.1890   64.6840   51.7480 C.3    81  ILE81       0.0019
     35  CG2       30.3180   65.8770   51.5240 C.3    81  ILE81       0.0019
     36  CD1       27.9000   65.7090   52.8080 C.3    81  ILE81       0.0001
     37  N         25.3100   63.3330   49.8820 N.3    83  ALA83      -0.1231
     38  CA        24.0580   63.5390   50.6130 C.3    83  ALA83       0.1694
     39  C         24.2400   63.1430   52.0510 C.2    83  ALA83       0.2592
     40  O         25.2170   62.5020   52.3830 O.2    83  ALA83      -0.2718
     41  CB        22.9860   62.5830   50.0310 C.3    83  ALA83       0.0304
     42  N         23.2700   63.4740   52.8920 N.am   84  HIS84      -0.1962
     43  CA        23.2820   63.0560   54.2960 C.3    84  HIS84       0.1787
     44  C         21.8470   63.0340   54.8590 C.2    84  HIS84       0.2620
     45  O         20.9460   63.6220   54.2650 O.2    84  HIS84      -0.2715
     46  CB        24.2650   63.8750   55.1790 C.3    84  HIS84       0.0785
     47  CG        24.0010   65.3510   55.2210 C.ar   84  HIS84       0.0821
     48  ND1       24.8960   66.3050   54.7830 N.ar   84  HIS84      -0.2267
     49  CD2       22.9600   66.0460   55.7410 C.ar   84  HIS84       0.1154
     50  CE1       24.3880   67.5090   55.0530 C.ar   84  HIS84       0.1986
     51  NE2       23.2090   67.4150   55.6380 N.ar   84  HIS84      -0.2212
     52  N         21.6240   62.3370   55.9620 N.am   85  ALA85      -0.1963
     53  CA        20.3040   62.2820   56.5340 C.3    85  ALA85       0.1728
     54  C         20.3410   62.3290   58.0310 C.2    85  ALA85       0.2616
     55  O         21.3290   61.9390   58.6430 O.2    85  ALA85      -0.2715
     56  CB        19.6080   61.0400   56.0990 C.3    85  ALA85       0.0334
     57  N         19.2040   62.7020   58.6190 N.am   86  PHE86      -0.1960
     58  CA        19.0730   62.7850   60.0420 C.3    86  PHE86       0.1771
     59  C         18.3400   61.5950   60.5760 C.2    86  PHE86       0.2619
     60  O         17.3430   61.1560   60.0250 O.2    86  PHE86      -0.2715
     61  CB        18.3610   64.0630   60.4230 C.3    86  PHE86       0.0574
     62  CG        19.0780   65.2990   59.9920 C.ar   86  PHE86      -0.0200
     63  CD1       19.0870   65.6760   58.6500 C.ar   86  PHE86      -0.0042
     64  CD2       19.8030   66.0490   60.9090 C.ar   86  PHE86      -0.0042
     65  CE1       19.8000   66.7770   58.2250 C.ar   86  PHE86      -0.0003
     66  CE2       20.5400   67.1830   60.4720 C.ar   86  PHE86      -0.0003
     67  CZ        20.5360   67.5360   59.1500 C.ar   86  PHE86      -0.0000
     68  N         18.8530   61.0660   61.6730 N.am   87  GLN87      -0.1977
     69  CA        18.2760   59.9170   62.3220 C.3    87  GLN87       0.1601
     70  C         16.8270   60.2170   62.7290 C.2    87  GLN87       0.2287
     71  O         16.4350   61.3900   62.7820 O.2    87  GLN87      -0.2864
     72  CB        19.1070   59.6060   63.5510 C.3    87  GLN87       0.0394
     73  CG        18.9360   60.6050   64.6290 C.3    87  GLN87       0.0908
     74  CD        19.6520   60.2010   65.8680 C.2    87  GLN87       0.2608
     75  OE1       19.0740   60.1610   66.9650 O.2    87  GLN87      -0.2717
     76  NE2       20.9240   59.8640   65.7170 N.am   87  GLN87      -0.0878
     77  N         19.9520   54.7890   50.0680 N.3   119  HIS119     -0.1226
     78  CA        21.0350   54.8120   51.1050 C.3   119  HIS119      0.1752
     79  C         20.6900   55.8180   52.2080 C.2   119  HIS119      0.2595
     80  O         20.6930   55.4880   53.3860 O.2   119  HIS119     -0.2718
     81  CB        22.4330   55.1520   50.5040 C.3   119  HIS119      0.0759
     82  CG        23.5400   55.2190   51.5290 C.ar  119  HIS119      0.0818
     83  ND1       24.4520   54.2210   51.7790 N.ar  119  HIS119     -0.2268
     84  CD2       23.8570   56.2170   52.4020 C.ar  119  HIS119      0.1154
     85  CE1       25.2580   54.6160   52.7810 C.ar  119  HIS119      0.1986
     86  NE2       24.9380   55.8300   53.1870 N.ar  119  HIS119     -0.2212
     87  N         20.3580   57.0390   51.8090 N.am  120  GLU120     -0.1979
     88  CA        19.9780   58.0900   52.7720 C.3   120  GLU120      0.1602
     89  C         18.7930   57.6980   53.6510 C.2   120  GLU120      0.2287
     90  O         18.7930   57.9380   54.8690 O.2   120  GLU120     -0.2864
     91  CB        19.6890   59.4230   52.0510 C.3   120  GLU120      0.0415
     92  CG        20.9300   60.0900   51.3880 C.3   120  GLU120      0.1163
     93  CD        22.2330   59.8960   52.1900 C.2   120  GLU120      0.3649
     94  OE1       22.2560   60.1340   53.4180 O.co2 120  GLU120     -0.2457
     95  OE2       23.2360   59.4570   51.5750 O.co2 120  GLU120     -0.2457
     96  N         19.4720   55.7480   56.8910 N.3   123  HIS123     -0.1241
     97  CA        19.8790   56.6440   57.9900 C.3   123  HIS123      0.1621
     98  C         18.6260   57.2870   58.6290 C.2   123  HIS123      0.2264
     99  O         18.4680   57.2700   59.8500 O.2   123  HIS123     -0.2867
    100  CB        20.8100   57.7580   57.4800 C.3   123  HIS123      0.0745
    101  CG        22.1520   57.2850   57.0150 C.ar  123  HIS123      0.0817
    102  ND1       22.9810   56.4570   57.7430 N.ar  123  HIS123     -0.2268
    103  CD2       22.8410   57.5980   55.8910 C.ar  123  HIS123      0.1154
    104  CE1       24.1160   56.3010   57.0610 C.ar  123  HIS123      0.1986
    105  NE2       24.0890   56.9710   55.9230 N.ar  123  HIS123     -0.2212
    106  N         19.4460   53.3950   60.6630 N.3   127  LEU127     -0.1231
    107  CA        20.6120   52.5370   60.3870 C.3   127  LEU127      0.1693
    108  C         21.8830   53.3870   60.2030 C.2   127  LEU127      0.2592
    109  O         21.8280   54.5220   59.7050 O.2   127  LEU127     -0.2718
    110  CB        20.3890   51.7420   59.1030 C.3   127  LEU127      0.0284
    111  CG        20.1270   50.2370   59.0440 C.3   127  LEU127      0.0019
    112  CD1       19.6130   49.6200   60.3070 C.3   127  LEU127      0.0001
    113  CD2       19.1650   49.9870   57.8980 C.3   127  LEU127      0.0001
    114  N         23.0210   52.8640   60.6450 N.am  128  ALA128     -0.1966
    115  CA        24.2850   53.5520   60.4550 C.3   128  ALA128      0.1728
    116  C         24.9610   52.8290   59.2840 C.2   128  ALA128      0.2616
    117  O         24.3250   52.0160   58.6030 O.2   128  ALA128     -0.2715
    118  CB        25.1250   53.4660   61.7010 C.3   128  ALA128      0.0334
    119  N         26.2240   53.1320   58.9890 N.am  129  HIS129     -0.1973
    120  CA        26.9070   52.4100   57.8930 C.3   129  HIS129      0.1656
    121  C         27.2810   50.9740   58.3120 C.2   129  HIS129      0.2291
    122  O         27.4640   50.6680   59.4940 O.2   129  HIS129     -0.2864
    123  CB        28.1290   53.1820   57.4140 C.3   129  HIS129      0.0771
    124  CG        27.7880   54.4410   56.6690 C.ar  129  HIS129      0.0820
    125  ND1       28.3710   55.6770   56.9070 N.ar  129  HIS129     -0.2267
    126  CD2       26.9070   54.6390   55.6520 C.ar  129  HIS129      0.1154
    127  CE1       27.8430   56.5500   56.0540 C.ar  129  HIS129      0.1986
    128  NE2       26.9460   55.9690   55.2680 N.ar  129  HIS129     -0.2212
    129  N         29.6300   52.6230   53.5060 N.3   139  PRO139     -0.2116
    130  CA        29.9820   54.0420   53.4440 C.3   139  PRO139      0.1372
    131  C         30.1550   54.6980   52.0970 C.2   139  PRO139      0.2244
    132  O         29.6830   55.8120   51.8990 O.2   139  PRO139     -0.2868
    133  CB        31.2470   54.1270   54.2930 C.3   139  PRO139      0.0268
    134  CG        31.0340   53.0750   55.3600 C.3   139  PRO139      0.0207
    135  CD        30.4890   51.9260   54.4960 C.3   139  PRO139      0.0892
@<TRIPOS>BOND
     1    32    31    2
     2    31    30    1
     3    29    30    1
     4    37    38    1
     5    30    33    1
     6    41    38    1
     7    77    78    1
     8    81    78    1
     9    81    82    1
    10    38    39    1
    11    78    79    1
    12    92    91    1
    13    92    93    1
    14    33    35    1
    15    33    34    1
    16    82    83   ar
    17    82    84   ar
    18    95    93   ar
    19    34    36    1
    20    83    85   ar
    21    87    79   am
    22    87    88    1
    23   132   131    2
    24    91    88    1
    25    39    40    2
    26    39    42   am
    27   131   130    1
    28    93    94   ar
    29    79    80    2
    30    84    86   ar
    31    88    89    1
    32    85    86   ar
    33    42    43    1
    34   130   129    1
    35   130   133    1
    36   129   135    1
    37    89    90    2
    38    45    44    2
    39   133   134    1
    40    43    44    1
    41    43    46    1
    42   135   134    1
    43    48    50   ar
    44    48    47   ar
    45    44    52   am
    46    50    51   ar
    47    46    47    1
    48    47    49   ar
    49   128   126   ar
    50   128   127   ar
    51    26    25    2
    52    51    49   ar
    53   126   124   ar
    54   103   105   ar
    55   103   101   ar
    56   105   104   ar
    57    52    53    1
    58   127   125   ar
    59    56    53    1
    60    25    24    1
    61    53    54    1
    62   124   125   ar
    63   124   123    1
    64    96    97    1
    65    22    20   ar
    66   101   100    1
    67   101   102   ar
    68   104   102   ar
    69    21    20   ar
    70   123   120    1
    71   100    97    1
    72    20    19    1
    73    24    27    1
    74    24    23    1
    75   120   121    1
    76   120   119    1
    77   113   111    1
    78    27    28    1
    79    97    98    1
    80    54    57   am
    81    54    55    2
    82    15    16    1
    83    65    63   ar
    84    65    67   ar
    85   121   122    2
    86   117   116    2
    87    57    58    1
    88    98    99    2
    89    63    62   ar
    90    19    16    1
    91   119   116   am
    92   111   110    1
    93   111   112    1
    94   110   107    1
    95    67    66   ar
    96    16    17    1
    97   116   115    1
    98   109   108    2
    99    17    18    2
   100    62    61    1
   101    62    64   ar
   102    60    59    2
   103    58    61    1
   104    58    59    1
   105   108   107    1
   106   108   114   am
   107   107   106    1
   108   115   114    1
   109   115   118    1
   110    66    64   ar
   111    59    68   am
   112    68    69    1
   113    69    70    1
   114    69    72    1
   115    70    71    2
   116     6     5    1
   117    72    73    1
   118     1     2    1
   119     5     2    1
   120     5     7    1
   121    73    74    1
   122     2     3    1
   123    76    74   am
   124    74    75    2
   125    14     8    1
   126    14    13    1
   127     3     8   am
   128     3     4    2
   129     8     9    1
   130    13    12    1
   131     9    12    1
   132     9    10    1
   133    11    10    2
