@<TRIPOS>MOLECULE
tmp/1jaoA00.pdb
 169 169 0 0 0
SMALL
GASTEIGER

@<TRIPOS>ATOM
      1  N         31.0620   65.4430   43.4630 N.3    73  ASN73      -0.1225
      2  CA        31.6020   64.2110   44.0500 C.3    73  ASN73       0.1785
      3  C         31.7840   64.3660   45.5340 C.2    73  ASN73       0.2598
      4  O         31.1450   65.2210   46.1280 O.2    73  ASN73      -0.2718
      5  CB        32.8820   63.8010   43.3420 C.3    73  ASN73       0.1169
      6  CG        32.7430   63.8860   41.8320 C.2    73  ASN73       0.2627
      7  OD1       32.0360   63.0970   41.2220 O.2    73  ASN73      -0.2716
      8  ND2       33.3580   64.8880   41.2350 N.am   73  ASN73      -0.0877
      9  N         32.6390   63.5520   46.1430 N.am   74  GLY74      -0.1942
     10  CA        32.8470   63.6520   47.5720 C.3    74  GLY74       0.2014
     11  C         31.5130   63.2650   48.1750 C.2    74  GLY74       0.2639
     12  O         30.8710   62.3800   47.6290 O.2    74  GLY74      -0.2714
     13  N         31.0910   63.8660   49.2880 N.am   75  ILE75      -0.1963
     14  CA        29.7900   63.4970   49.8060 C.3    75  ILE75       0.1727
     15  C         28.6650   63.8860   48.8300 C.2    75  ILE75       0.2616
     16  O         28.6590   64.9740   48.2610 O.2    75  ILE75      -0.2715
     17  CB        29.5130   63.9930   51.2540 C.3    75  ILE75       0.0290
     18  CG1       28.0740   64.4880   51.3690 C.3    75  ILE75       0.0022
     19  CG2       30.5160   64.9760   51.7080 C.3    75  ILE75       0.0023
     20  CD1       27.6980   64.8940   52.7370 C.3    75  ILE75       0.0001
     21  N         27.7850   62.9210   48.5920 N.am   76  LEU76      -0.1963
     22  CA        26.6510   63.0220   47.6860 C.3    76  LEU76       0.1728
     23  C         25.3120   63.4440   48.3110 C.2    76  LEU76       0.2616
     24  O         24.4410   64.0070   47.6160 O.2    76  LEU76      -0.2715
     25  CB        26.4320   61.6620   47.0280 C.3    76  LEU76       0.0311
     26  CG        27.2870   61.0980   45.8820 C.3    76  LEU76       0.0022
     27  CD1       28.5260   61.8950   45.6550 C.3    76  LEU76       0.0001
     28  CD2       27.5580   59.6690   46.1420 C.3    76  LEU76       0.0001
     29  N         25.1250   63.1260   49.5930 N.am   77  ALA77      -0.1963
     30  CA        23.8690   63.4210   50.2730 C.3    77  ALA77       0.1728
     31  C         24.0420   62.9920   51.6690 C.2    77  ALA77       0.2616
     32  O         25.0520   62.4120   51.9680 O.2    77  ALA77      -0.2715
     33  CB        22.7640   62.5700   49.6740 C.3    77  ALA77       0.0334
     34  N         23.0710   63.3190   52.5170 N.am   78  HIS78      -0.1973
     35  CA        23.0330   62.8660   53.9060 C.3    78  HIS78       0.1656
     36  C         21.5750   62.7920   54.4740 C.2    78  HIS78       0.2291
     37  O         20.6430   63.4000   53.9480 O.2    78  HIS78      -0.2864
     38  CB        23.9930   63.6380   54.8110 C.3    78  HIS78       0.0771
     39  CG        23.7050   65.1010   54.9220 C.ar   78  HIS78       0.0820
     40  ND1       24.5700   66.0850   54.5050 N.ar   78  HIS78      -0.2267
     41  CD2       22.6090   65.7530   55.3850 C.ar   78  HIS78       0.1154
     42  CE1       23.9880   67.2730   54.7190 C.ar   78  HIS78       0.1986
     43  NE2       22.7920   67.1360   55.2520 N.ar   78  HIS78      -0.2212
     44  N         27.4490   58.0730   36.8000 N.3   104  ASN104     -0.1225
     45  CA        27.4710   58.6480   38.1650 C.3   104  ASN104      0.1785
     46  C         26.6760   59.9640   38.2290 C.2   104  ASN104      0.2597
     47  O         26.9270   60.8500   37.4070 O.2   104  ASN104     -0.2718
     48  CB        28.9080   58.9780   38.5820 C.3   104  ASN104      0.1169
     49  CG        29.6600   57.7860   39.1430 C.2   104  ASN104      0.2627
     50  OD1       29.1900   56.6520   39.1090 O.2   104  ASN104     -0.2716
     51  ND2       30.8490   58.0460   39.6660 N.am  104  ASN104     -0.0877
     52  N         25.7400   60.1360   39.1710 N.am  105  TYR105     -0.1976
     53  CA        25.3440   59.1770   40.2090 C.3   105  TYR105      0.1639
     54  C         23.8940   58.8090   39.8720 C.2   105  TYR105      0.2290
     55  O         23.2000   59.5980   39.2410 O.2   105  TYR105     -0.2864
     56  CB        25.5000   59.7890   41.6050 C.3   105  TYR105      0.0560
     57  CG        26.9580   60.0530   41.9430 C.ar  105  TYR105     -0.0198
     58  CD1       27.7820   59.0320   42.4160 C.ar  105  TYR105     -0.0009
     59  CD2       27.5330   61.3050   41.7200 C.ar  105  TYR105     -0.0009
     60  CE1       29.1450   59.2460   42.6520 C.ar  105  TYR105      0.0417
     61  CE2       28.8890   61.5330   41.9510 C.ar  105  TYR105      0.0417
     62  CZ        29.6910   60.4980   42.4150 C.ar  105  TYR105      0.1957
     63  OH        31.0310   60.7210   42.6310 O.3   105  TYR105     -0.2866
     64  N         19.5490   54.8410   43.7940 N.3   109  LEU109     -0.1231
     65  CA        20.4940   54.1610   44.7140 C.3   109  LEU109      0.1693
     66  C         20.9520   55.0390   45.8640 C.2   109  LEU109      0.2591
     67  O         21.1120   54.5440   46.9550 O.2   109  LEU109     -0.2718
     68  CB        21.7100   53.5590   43.9660 C.3   109  LEU109      0.0284
     69  CG        21.5450   52.3300   43.0920 C.3   109  LEU109      0.0019
     70  CD1       22.7980   52.1000   42.2750 C.3   109  LEU109      0.0001
     71  CD2       21.2480   51.1380   43.9980 C.3   109  LEU109      0.0001
     72  N         21.1730   56.3300   45.6300 N.am  110  VAL110     -0.1980
     73  CA        21.5950   57.2100   46.7200 C.3   110  VAL110      0.1595
     74  C         20.4000   57.4780   47.6390 C.2   110  VAL110      0.2287
     75  O         20.5440   57.5420   48.8670 O.2   110  VAL110     -0.2864
     76  CB        22.1850   58.5350   46.1900 C.3   110  VAL110      0.0276
     77  CG1       22.5390   59.4840   47.3530 C.3   110  VAL110      0.0022
     78  CG2       23.4100   58.2410   45.3180 C.3   110  VAL110      0.0022
     79  N         19.8740   54.5020   49.8610 N.3   113  HIS113     -0.1226
     80  CA        20.8780   54.5150   50.9480 C.3   113  HIS113      0.1752
     81  C         20.4820   55.5180   52.0560 C.2   113  HIS113      0.2595
     82  O         20.5100   55.2190   53.2570 O.2   113  HIS113     -0.2718
     83  CB        22.2740   54.8870   50.3540 C.3   113  HIS113      0.0759
     84  CG        23.3800   55.0110   51.3770 C.ar  113  HIS113      0.0818
     85  ND1       24.3240   54.0430   51.6120 N.ar  113  HIS113     -0.2268
     86  CD2       23.6760   56.0140   52.2350 C.ar  113  HIS113      0.1154
     87  CE1       25.1190   54.4810   52.5860 C.ar  113  HIS113      0.1986
     88  NE2       24.7650   55.6760   52.9900 N.ar  113  HIS113     -0.2212
     89  N         20.1160   56.7210   51.6330 N.am  114  GLU114     -0.1979
     90  CA        19.7400   57.7680   52.5590 C.3   114  GLU114      0.1602
     91  C         18.5570   57.3950   53.4250 C.2   114  GLU114      0.2287
     92  O         18.6070   57.5440   54.6630 O.2   114  GLU114     -0.2864
     93  CB        19.5120   59.0700   51.7960 C.3   114  GLU114      0.0415
     94  CG        20.8150   59.6650   51.2520 C.3   114  GLU114      0.1163
     95  CD        21.9580   59.6120   52.2610 C.2   114  GLU114      0.3649
     96  OE1       21.7720   59.8330   53.4610 O.co2 114  GLU114     -0.2457
     97  OE2       23.0770   59.3320   51.8480 O.co2 114  GLU114     -0.2457
     98  N         19.1760   55.4730   56.4820 N.3   117  HIS117     -0.1241
     99  CA        19.5720   56.2940   57.6210 C.3   117  HIS117      0.1621
    100  C         18.3430   56.8950   58.3210 C.2   117  HIS117      0.2264
    101  O         18.3270   56.9750   59.5440 O.2   117  HIS117     -0.2867
    102  CB        20.5130   57.4430   57.1800 C.3   117  HIS117      0.0745
    103  CG        21.8880   56.9940   56.8130 C.ar  117  HIS117      0.0817
    104  ND1       22.6580   56.1480   57.5880 N.ar  117  HIS117     -0.2268
    105  CD2       22.6500   57.3020   55.7360 C.ar  117  HIS117      0.1154
    106  CE1       23.8200   55.9760   56.9760 C.ar  117  HIS117      0.1986
    107  NE2       23.8650   56.6570   55.8500 N.ar  117  HIS117     -0.2212
    108  N         25.9850   52.8960   58.7390 N.3   123  HIS123     -0.1241
    109  CA        26.7530   52.2840   57.6770 C.3   123  HIS123      0.1621
    110  C         27.1460   50.8690   58.0320 C.2   123  HIS123      0.2264
    111  O         27.2100   50.5010   59.1900 O.2   123  HIS123     -0.2867
    112  CB        27.9680   53.1330   57.4060 C.3   123  HIS123      0.0745
    113  CG        27.6490   54.3520   56.6270 C.ar  123  HIS123      0.0817
    114  ND1       28.2030   55.5950   56.8630 N.ar  123  HIS123     -0.2268
    115  CD2       26.8430   54.4980   55.5400 C.ar  123  HIS123      0.1154
    116  CE1       27.7480   56.4280   55.9330 C.ar  123  HIS123      0.1986
    117  NE2       26.9200   55.8030   55.1110 N.ar  123  HIS123     -0.2212
    118  N         24.0030   47.8490   50.7690 N.3   130  LEU130     -0.1245
    119  CA        23.6490   49.1850   50.2520 C.3   130  LEU130      0.1561
    120  C         24.0960   50.2440   51.2850 C.2   130  LEU130      0.2260
    121  O         24.4260   51.3740   50.9070 O.2   130  LEU130     -0.2867
    122  CB        22.1340   49.2920   50.0840 C.3   130  LEU130      0.0270
    123  CG        21.5150   50.6330   49.7040 C.3   130  LEU130      0.0019
    124  CD1       21.7320   51.0040   48.2580 C.3   130  LEU130      0.0001
    125  CD2       20.0440   50.4560   49.9410 C.3   130  LEU130      0.0001
    126  N         26.8090   50.4940   52.9090 N.3   132  TYR132     -0.1228
    127  CA        28.2530   50.6240   52.8460 C.3   132  TYR132      0.1721
    128  C         28.4890   52.1270   52.5960 C.2   132  TYR132      0.2437
    129  O         27.8120   52.7070   51.7610 O.2   132  TYR132     -0.2733
    130  CB        28.7550   49.7640   51.6690 C.3   132  TYR132      0.0547
    131  CG        30.2460   49.5760   51.6290 C.ar  132  TYR132     -0.0200
    132  CD1       30.9160   48.8590   52.6510 C.ar  132  TYR132     -0.0009
    133  CD2       31.0140   50.1370   50.5810 C.ar  132  TYR132     -0.0009
    134  CE1       32.3160   48.7090   52.6310 C.ar  132  TYR132      0.0417
    135  CE2       32.4090   49.9970   50.5490 C.ar  132  TYR132      0.0417
    136  CZ        33.0500   49.2800   51.5770 C.ar  132  TYR132      0.1957
    137  OH        34.4200   49.1430   51.5520 O.3   132  TYR132     -0.2866
    138  N         29.5200   52.7350   53.2500 N.am  133  PRO133     -0.2718
    139  CA        29.8300   54.1600   53.1180 C.3   133  PRO133      0.1535
    140  C         30.0870   54.7400   51.7610 C.2   133  PRO133      0.2599
    141  O         29.8580   55.9380   51.5620 O.2   133  PRO133     -0.2715
    142  CB        31.0490   54.3430   54.0220 C.3   133  PRO133      0.0310
    143  CG        30.9350   53.1690   55.0280 C.3   133  PRO133      0.0237
    144  CD        30.5180   52.0650   54.1090 C.3   133  PRO133      0.0939
    145  N         30.5700   53.9290   50.8240 N.am  134  ASN134     -0.1959
    146  CA        30.8900   54.4270   49.5100 C.3   134  ASN134      0.1819
    147  C         29.9470   53.8380   48.4680 C.2   134  ASN134      0.2621
    148  O         29.5280   52.6920   48.5710 O.2   134  ASN134     -0.2715
    149  CB        32.3660   54.1330   49.1220 C.3   134  ASN134      0.1195
    150  CG        33.4070   54.7310   50.0890 C.2   134  ASN134      0.2630
    151  OD1       34.4290   54.0960   50.3540 O.2   134  ASN134     -0.2716
    152  ND2       33.1540   55.9320   50.6260 N.am  134  ASN134     -0.0877
    153  N         29.6100   54.6630   47.4800 N.am  135  TYR135     -0.1960
    154  CA        28.7120   54.3570   46.3760 C.3   135  TYR135      0.1771
    155  C         29.3450   53.4500   45.3450 C.2   135  TYR135      0.2619
    156  O         30.5270   53.6020   45.0240 O.2   135  TYR135     -0.2715
    157  CB        28.3000   55.6770   45.7200 C.3   135  TYR135      0.0574
    158  CG        27.5570   55.5920   44.4220 C.ar  135  TYR135     -0.0198
    159  CD1       28.2520   55.4130   43.2180 C.ar  135  TYR135     -0.0009
    160  CD2       26.1530   55.7350   44.3730 C.ar  135  TYR135     -0.0009
    161  CE1       27.5840   55.3720   41.9920 C.ar  135  TYR135      0.0417
    162  CE2       25.4690   55.7070   43.1500 C.ar  135  TYR135      0.0417
    163  CZ        26.1900   55.5260   41.9660 C.ar  135  TYR135      0.1957
    164  OH        25.5660   55.5390   40.7280 O.3   135  TYR135     -0.2866
    165  N         28.5310   52.5510   44.7880 N.am  136  ALA136     -0.1977
    166  CA        28.9390   51.6000   43.7550 C.3   136  ALA136      0.1597
    167  C         27.6620   51.3470   42.9760 C.2   136  ALA136      0.2287
    168  O         26.5980   51.1610   43.5980 O.2   136  ALA136     -0.2864
    169  CB        29.4060   50.2800   44.3780 C.3   136  ALA136      0.0319
@<TRIPOS>BOND
     1    44    45    1
     2    47    46    2
     3    45    46    1
     4    45    48    1
     5    46    52   am
     6    48    49    1
     7    50    49    2
     8    49    51   am
     9    52    53    1
    10    55    54    2
    11    54    53    1
    12    53    56    1
    13   164   163    1
    14     7     6    2
    15     8     6   am
    16    56    57    1
    17    59    57   ar
    18    59    61   ar
    19     6     5    1
    20    57    58   ar
    21    61    62   ar
    22   163   161   ar
    23   163   162   ar
    24   161   159   ar
    25    70    69    1
    26    62    63    1
    27    62    60   ar
    28    58    60   ar
    29   167   168    2
    30   167   166    1
    31    69    68    1
    32    69    71    1
    33   162   160   ar
    34   159   158   ar
    35     5     2    1
    36     1     2    1
    37   166   169    1
    38   166   165    1
    39    64    65    1
    40    68    65    1
    41     2     3    1
    42   160   158   ar
    43   158   157    1
    44    65    66    1
    45   165   155   am
    46   156   155    2
    47    78    76    1
    48   155   154    1
    49     3     4    2
    50     3     9   am
    51    72    66   am
    52    72    73    1
    53    27    26    1
    54   157   154    1
    55    66    67    2
    56    26    28    1
    57    26    25    1
    58     9    10    1
    59    76    73    1
    60    76    77    1
    61   154   153    1
    62    73    74    1
    63    25    22    1
    64   153   147   am
    65    10    11    1
    66    24    23    2
    67    12    11    2
    68    74    75    2
    69    22    23    1
    70    22    21    1
    71    11    13   am
    72   124   123    1
    73    16    15    2
    74    23    29   am
    75   147   148    2
    76   147   146    1
    77    21    15   am
    78    15    14    1
    79   149   146    1
    80   149   150    1
    81    13    14    1
    82   146   145    1
    83    29    30    1
    84    33    30    1
    85   123   125    1
    86   123   122    1
    87    14    17    1
    88    79    80    1
    89   122   119    1
    90   150   151    2
    91   150   152   am
    92   119   118    1
    93   119   120    1
    94    30    31    1
    95    83    80    1
    96    83    84    1
    97   135   133   ar
    98   135   136   ar
    99   133   131   ar
   100   145   140   am
   101   121   120    2
   102    80    81    1
   103    94    93    1
   104    94    95    1
   105    17    18    1
   106    17    19    1
   107    18    20    1
   108    84    85   ar
   109    84    86   ar
   110   137   136    1
   111   141   140    2
   112   136   134   ar
   113    85    87   ar
   114   131   130    1
   115   131   132   ar
   116    89    81   am
   117    89    90    1
   118    31    32    2
   119    31    34   am
   120   130   127    1
   121   129   128    2
   122   140   139    1
   123    93    90    1
   124    97    95   ar
   125    81    82    2
   126    86    88   ar
   127    95    96   ar
   128    34    35    1
   129    90    91    1
   130    87    88   ar
   131   128   127    1
   132   128   138   am
   133   134   132   ar
   134   127   126    1
   135   139   138    1
   136   139   142    1
   137   138   144    1
   138    91    92    2
   139    35    36    1
   140    35    38    1
   141    37    36    2
   142   142   143    1
   143   144   143    1
   144    40    42   ar
   145    40    39   ar
   146    42    43   ar
   147    38    39    1
   148    39    41   ar
   149   117   115   ar
   150   117   116   ar
   151    43    41   ar
   152   115   113   ar
   153   105   107   ar
   154   105   103   ar
   155   107   106   ar
   156   116   114   ar
   157    98    99    1
   158   113   114   ar
   159   113   112    1
   160   103   102    1
   161   103   104   ar
   162   106   104   ar
   163   102    99    1
   164   112   109    1
   165    99   100    1
   166   109   110    1
   167   109   108    1
   168   110   111    2
   169   100   101    2
