@<TRIPOS>MOLECULE
tmp/1jaqA00.pdb
 141 141 0 0 0
SMALL
GASTEIGER

@<TRIPOS>ATOM
      1  N         32.6650   63.9580   46.1090 N.3    74  GLY74      -0.1210
      2  CA        32.7710   64.1350   47.5430 C.3    74  GLY74       0.1956
      3  C         31.5000   63.5940   48.2060 C.2    74  GLY74       0.2612
      4  O         31.1340   62.4280   47.9730 O.2    74  GLY74      -0.2717
      5  N         30.9000   64.3610   49.1200 N.am   75  ILE75      -0.1965
      6  CA        29.6690   63.8910   49.7230 C.3    75  ILE75       0.1727
      7  C         28.5150   64.1990   48.7770 C.2    75  ILE75       0.2616
      8  O         28.4530   65.2630   48.1360 O.2    75  ILE75      -0.2715
      9  CB        29.4200   64.4220   51.1320 C.3    75  ILE75       0.0290
     10  CG1       28.1840   65.3230   51.2010 C.3    75  ILE75       0.0022
     11  CG2       30.5800   65.1280   51.5790 C.3    75  ILE75       0.0023
     12  CD1       27.5100   65.4100   52.5400 C.3    75  ILE75       0.0001
     13  N         27.7280   63.1590   48.5780 N.am   76  LEU76      -0.1963
     14  CA        26.5590   63.1360   47.7130 C.3    76  LEU76       0.1728
     15  C         25.2710   63.5160   48.4320 C.2    76  LEU76       0.2616
     16  O         24.4090   64.1560   47.7960 O.2    76  LEU76      -0.2715
     17  CB        26.4180   61.7390   47.1140 C.3    76  LEU76       0.0311
     18  CG        27.2510   61.4350   45.8600 C.3    76  LEU76       0.0022
     19  CD1       28.3860   62.3250   45.7380 C.3    76  LEU76       0.0001
     20  CD2       27.6780   60.0380   45.8580 C.3    76  LEU76       0.0001
     21  N         25.1460   63.1830   49.7340 N.am   77  ALA77      -0.1963
     22  CA        23.9390   63.5010   50.4700 C.3    77  ALA77       0.1728
     23  C         24.0980   63.0690   51.8820 C.2    77  ALA77       0.2616
     24  O         25.0780   62.4670   52.2170 O.2    77  ALA77      -0.2715
     25  CB        22.7130   62.7290   49.8360 C.3    77  ALA77       0.0334
     26  N         23.1080   63.3850   52.7000 N.am   78  HIS78      -0.1959
     27  CA        23.0550   62.9960   54.0930 C.3    78  HIS78       0.1787
     28  C         21.6100   63.0200   54.5630 C.2    78  HIS78       0.2620
     29  O         20.7670   63.6950   53.9720 O.2    78  HIS78      -0.2715
     30  CB        24.0150   63.8300   55.0170 C.3    78  HIS78       0.0785
     31  CG        23.7490   65.2950   55.0630 C.ar   78  HIS78       0.0821
     32  ND1       24.6310   66.2440   54.6280 N.ar   78  HIS78      -0.2267
     33  CD2       22.6530   65.9800   55.4600 C.ar   78  HIS78       0.1154
     34  CE1       24.0640   67.4490   54.7520 C.ar   78  HIS78       0.1986
     35  NE2       22.8590   67.3430   55.2580 N.ar   78  HIS78      -0.2212
     36  N         21.3030   62.2320   55.5750 N.am   79  ALA79      -0.1977
     37  CA        19.9370   62.1650   56.1030 C.3    79  ALA79       0.1597
     38  C         20.0730   62.1790   57.6090 C.2    79  ALA79       0.2287
     39  O         21.1740   61.9330   58.1200 O.2    79  ALA79      -0.2864
     40  CB        19.2580   60.8840   55.6770 C.3    79  ALA79       0.0319
     41  N         19.7250   54.8420   43.7490 N.3   109  LEU109     -0.1231
     42  CA        20.6730   54.1850   44.7110 C.3   109  LEU109      0.1693
     43  C         21.1370   55.1180   45.8050 C.2   109  LEU109      0.2591
     44  O         21.2690   54.6940   46.9130 O.2   109  LEU109     -0.2718
     45  CB        21.8980   53.5680   43.9850 C.3   109  LEU109      0.0284
     46  CG        21.5560   52.4550   43.0080 C.3   109  LEU109      0.0019
     47  CD1       22.6980   52.2370   42.0870 C.3   109  LEU109      0.0001
     48  CD2       21.1590   51.2120   43.7580 C.3   109  LEU109      0.0001
     49  N         21.4090   56.3760   45.5090 N.am  110  VAL110     -0.1980
     50  CA        21.8030   57.2690   46.5800 C.3   110  VAL110      0.1595
     51  C         20.5570   57.5090   47.5140 C.2   110  VAL110      0.2287
     52  O         20.6560   57.4570   48.7790 O.2   110  VAL110     -0.2864
     53  CB        22.3920   58.5860   46.0360 C.3   110  VAL110      0.0276
     54  CG1       22.6500   59.5750   47.1970 C.3   110  VAL110      0.0022
     55  CG2       23.6870   58.2860   45.2550 C.3   110  VAL110      0.0022
     56  N         19.9370   54.6930   49.8370 N.3   113  HIS113     -0.1226
     57  CA        20.9780   54.7430   50.8970 C.3   113  HIS113      0.1752
     58  C         20.5960   55.7420   51.9910 C.2   113  HIS113      0.2595
     59  O         20.7580   55.4880   53.1650 O.2   113  HIS113     -0.2718
     60  CB        22.3910   55.1040   50.3170 C.3   113  HIS113      0.0759
     61  CG        23.4630   55.2640   51.3630 C.ar  113  HIS113      0.0818
     62  ND1       24.2080   54.2340   51.8760 N.ar  113  HIS113     -0.2268
     63  CD2       23.8790   56.3610   52.0390 C.ar  113  HIS113      0.1154
     64  CE1       25.0110   54.7230   52.8360 C.ar  113  HIS113      0.1986
     65  NE2       24.8550   56.0170   52.9660 N.ar  113  HIS113     -0.2212
     66  N         20.1820   56.9220   51.5770 N.am  114  GLU114     -0.1979
     67  CA        19.7740   57.9340   52.5340 C.3   114  GLU114      0.1602
     68  C         18.5960   57.5180   53.4200 C.2   114  GLU114      0.2287
     69  O         18.6560   57.6640   54.6370 O.2   114  GLU114     -0.2864
     70  CB        19.5160   59.2540   51.7940 C.3   114  GLU114      0.0415
     71  CG        20.8030   59.8820   51.1690 C.3   114  GLU114      0.1163
     72  CD        21.9820   59.7780   52.0840 C.2   114  GLU114      0.3649
     73  OE1       21.8940   60.1580   53.2740 O.co2 114  GLU114     -0.2457
     74  OE2       22.9780   59.1930   51.6370 O.co2 114  GLU114     -0.2457
     75  N         19.1730   55.4760   56.4720 N.3   117  HIS117     -0.1241
     76  CA        19.5400   56.4060   57.5650 C.3   117  HIS117      0.1621
     77  C         18.3000   57.0570   58.2470 C.2   117  HIS117      0.2264
     78  O         18.2320   57.1690   59.4700 O.2   117  HIS117     -0.2867
     79  CB        20.4490   57.5400   57.0190 C.3   117  HIS117      0.0745
     80  CG        21.8650   57.1220   56.7680 C.ar  117  HIS117      0.0817
     81  ND1       22.6750   56.5410   57.7110 N.ar  117  HIS117     -0.2268
     82  CD2       22.6200   57.2340   55.6560 C.ar  117  HIS117      0.1154
     83  CE1       23.8550   56.3370   57.1810 C.ar  117  HIS117      0.1986
     84  NE2       23.8850   56.7420   55.9330 N.ar  117  HIS117     -0.2212
     85  N         25.9710   52.8700   58.7900 N.3   123  HIS123     -0.1241
     86  CA        26.6940   52.2630   57.6940 C.3   123  HIS123      0.1621
     87  C         27.1330   50.8820   58.0670 C.2   123  HIS123      0.2264
     88  O         27.2760   50.5920   59.2580 O.2   123  HIS123     -0.2867
     89  CB        27.8930   53.1070   57.3900 C.3   123  HIS123      0.0745
     90  CG        27.5320   54.3650   56.6920 C.ar  123  HIS123      0.0817
     91  ND1       28.0770   55.6000   56.9740 N.ar  123  HIS123     -0.2268
     92  CD2       26.7400   54.5420   55.6070 C.ar  123  HIS123      0.1154
     93  CE1       27.6350   56.4580   56.0570 C.ar  123  HIS123      0.1986
     94  NE2       26.8200   55.8490   55.2050 N.ar  123  HIS123     -0.2212
     95  N         23.8130   47.9450   50.8700 N.3   130  LEU130     -0.1245
     96  CA        23.4690   49.3110   50.3960 C.3   130  LEU130      0.1561
     97  C         23.9550   50.3500   51.4400 C.2   130  LEU130      0.2260
     98  O         24.2910   51.4650   51.0880 O.2   130  LEU130     -0.2867
     99  CB        21.9400   49.4450   50.2270 C.3   130  LEU130      0.0270
    100  CG        21.1730   50.6760   49.7320 C.3   130  LEU130      0.0019
    101  CD1       21.4490   50.9880   48.2830 C.3   130  LEU130      0.0001
    102  CD2       19.6700   50.3690   49.8590 C.3   130  LEU130      0.0001
    103  N         26.6580   50.5430   52.9040 N.3   132  TYR132     -0.1228
    104  CA        28.1090   50.6550   52.7390 C.3   132  TYR132      0.1721
    105  C         28.3790   52.1470   52.5120 C.2   132  TYR132      0.2437
    106  O         27.7550   52.7630   51.6170 O.2   132  TYR132     -0.2733
    107  CB        28.5660   49.8630   51.5050 C.3   132  TYR132      0.0547
    108  CG        30.0250   49.5570   51.5400 C.ar  132  TYR132     -0.0200
    109  CD1       30.5990   48.8730   52.6440 C.ar  132  TYR132     -0.0009
    110  CD2       30.8640   50.0320   50.5400 C.ar  132  TYR132     -0.0009
    111  CE1       31.9900   48.6930   52.7450 C.ar  132  TYR132      0.0417
    112  CE2       32.2590   49.8660   50.6220 C.ar  132  TYR132      0.0417
    113  CZ        32.8090   49.2110   51.7150 C.ar  132  TYR132      0.1957
    114  OH        34.1830   49.1460   51.7470 O.3   132  TYR132     -0.2866
    115  N         29.3900   52.6960   53.2180 N.am  133  PRO133     -0.2718
    116  CA        29.8090   54.0800   53.1850 C.3   133  PRO133      0.1535
    117  C         30.0390   54.7360   51.8410 C.2   133  PRO133      0.2599
    118  O         29.7040   55.9400   51.7020 O.2   133  PRO133     -0.2715
    119  CB        31.0370   54.0830   54.0680 C.3   133  PRO133      0.0310
    120  CG        30.7620   53.0230   55.0920 C.3   133  PRO133      0.0237
    121  CD        30.2360   51.9350   54.1740 C.3   133  PRO133      0.0939
    122  N         30.5090   53.9810   50.8270 N.am  134  ASN134     -0.1959
    123  CA        30.8150   54.5550   49.4840 C.3   134  ASN134      0.1819
    124  C         29.9160   53.9800   48.3880 C.2   134  ASN134      0.2621
    125  O         29.5190   52.8270   48.4370 O.2   134  ASN134     -0.2715
    126  CB        32.3270   54.3710   49.0830 C.3   134  ASN134      0.1195
    127  CG        33.3420   54.8690   50.1730 C.2   134  ASN134      0.2630
    128  OD1       34.3290   54.2250   50.4220 O.2   134  ASN134     -0.2716
    129  ND2       33.0670   55.9860   50.8140 N.am  134  ASN134     -0.0877
    130  N         29.5330   54.8250   47.4440 N.am  135  TYR135     -0.1974
    131  CA        28.6460   54.4830   46.3490 C.3   135  TYR135      0.1639
    132  C         29.3170   53.5610   45.3620 C.2   135  TYR135      0.2290
    133  O         30.5430   53.6040   45.1990 O.2   135  TYR135     -0.2864
    134  CB        28.2140   55.7890   45.6670 C.3   135  TYR135      0.0560
    135  CG        27.5000   55.6880   44.3490 C.ar  135  TYR135     -0.0198
    136  CD1       28.2090   55.6160   43.1370 C.ar  135  TYR135     -0.0009
    137  CD2       26.1320   55.7050   44.2900 C.ar  135  TYR135     -0.0009
    138  CE1       27.5540   55.5630   41.9020 C.ar  135  TYR135      0.0417
    139  CE2       25.4670   55.6520   43.0630 C.ar  135  TYR135      0.0417
    140  CZ        26.1700   55.5910   41.8790 C.ar  135  TYR135      0.1957
    141  OH        25.4490   55.6380   40.7030 O.3   135  TYR135     -0.2866
@<TRIPOS>BOND
     1   141   140    1
     2   140   138   ar
     3   140   139   ar
     4   138   136   ar
     5    47    46    1
     6    46    48    1
     7    46    45    1
     8   139   137   ar
     9   136   135   ar
    10    41    42    1
    11    45    42    1
    12   137   135   ar
    13   135   134    1
    14    42    43    1
    15   133   132    2
    16    55    53    1
    17   132   131    1
    18    49    43   am
    19    49    50    1
    20   134   131    1
    21    19    18    1
    22    43    44    2
    23    20    18    1
    24    18    17    1
    25    53    50    1
    26    53    54    1
    27     1     2    1
    28   131   130    1
    29    50    51    1
    30    17    14    1
    31   130   124   am
    32    51    52    2
    33     2     3    1
    34    14    15    1
    35    14    13    1
    36    16    15    2
    37     4     3    2
    38     8     7    2
    39     3     5   am
    40   101   100    1
    41   124   125    2
    42   124   123    1
    43    15    21   am
    44    13     7   am
    45     7     6    1
    46   126   123    1
    47   126   127    1
    48     5     6    1
    49   123   122    1
    50     6     9    1
    51   100   102    1
    52   100    99    1
    53    21    22    1
    54    25    22    1
    55    56    57    1
    56   127   128    2
    57   127   129   am
    58    99    96    1
    59    60    57    1
    60    60    61    1
    61    96    95    1
    62    96    97    1
    63    22    23    1
    64   110   112   ar
    65   110   108   ar
    66   112   113   ar
    67   122   117   am
    68    57    58    1
    69    98    97    2
    70     9    10    1
    71     9    11    1
    72    71    70    1
    73    71    72    1
    74    10    12    1
    75    61    62   ar
    76    61    63   ar
    77   107   108    1
    78   107   104    1
    79   108   109   ar
    80    66    58   am
    81    66    67    1
    82   106   105    2
    83    74    72   ar
    84   118   117    2
    85   113   114    1
    86   113   111   ar
    87    70    67    1
    88   117   116    1
    89    62    64   ar
    90    23    24    2
    91    23    26   am
    92    58    59    2
    93    63    65   ar
    94    72    73   ar
    95   105   104    1
    96   105   115   am
    97    67    68    1
    98   109   111   ar
    99    26    27    1
   100   104   103    1
   101    64    65   ar
   102   116   115    1
   103   116   119    1
   104   115   121    1
   105    68    69    2
   106    29    28    2
   107   119   120    1
   108    27    28    1
   109    27    30    1
   110   121   120    1
   111    28    36   am
   112    32    34   ar
   113    32    31   ar
   114    34    35   ar
   115    30    31    1
   116    31    33   ar
   117    94    92   ar
   118    94    93   ar
   119    35    33   ar
   120    36    37    1
   121    92    90   ar
   122    82    84   ar
   123    82    80   ar
   124    40    37    1
   125    84    83   ar
   126    93    91   ar
   127    37    38    1
   128    75    76    1
   129    90    91   ar
   130    90    89    1
   131    80    79    1
   132    80    81   ar
   133    79    76    1
   134    83    81   ar
   135    89    86    1
   136    76    77    1
   137    38    39    2
   138    86    87    1
   139    86    85    1
   140    87    88    2
   141    77    78    2
