@<TRIPOS>MOLECULE
tmp/1jayA00.pdb
 217 211 0 0 0
SMALL
GASTEIGER

@<TRIPOS>ATOM
      1  N         23.4800   28.0600   32.8330 N.3     7  GLY7       -0.1225
      2  CA        24.5900   28.4940   31.9990 C.3     7  GLY7        0.1811
      3  C         24.3390   29.9650   31.6430 C.2     7  GLY7        0.2280
      4  O         24.8310   30.4510   30.6310 O.2     7  GLY7       -0.2866
      5  N         25.5770   32.5940   32.5830 N.3     9  THR9       -0.1203
      6  CA        26.7970   33.3820   32.6740 C.3     9  THR9        0.1994
      7  C         27.3430   33.7380   31.2780 C.2     9  THR9        0.2618
      8  O         28.2840   34.5350   31.1470 O.2     9  THR9       -0.2717
      9  CB        27.8720   32.5630   33.3720 C.3     9  THR9        0.1784
     10  OG1       27.9660   31.2790   32.7140 O.3     9  THR9       -0.2211
     11  CG2       27.5310   32.3430   34.8230 C.3     9  THR9        0.0376
     12  N         26.7500   33.1540   30.2360 N.am   10  GLY10      -0.1942
     13  CA        27.2310   33.3800   28.8840 C.3    10  GLY10       0.2014
     14  C         26.5410   34.4230   28.0250 C.2    10  GLY10       0.2639
     15  O         25.8490   35.3100   28.5310 O.2    10  GLY10      -0.2714
     16  N         26.7130   34.2970   26.7050 N.am   11  ASN11      -0.1958
     17  CA        26.1590   35.2660   25.7360 C.3    11  ASN11       0.1819
     18  C         24.6470   35.4840   25.7040 C.2    11  ASN11       0.2621
     19  O         24.1670   36.6180   25.8570 O.2    11  ASN11      -0.2715
     20  CB        26.6580   34.9060   24.3290 C.3    11  ASN11       0.1195
     21  CG        28.1700   34.8800   24.2520 C.2    11  ASN11       0.2630
     22  OD1       28.8410   35.7680   24.7850 O.2    11  ASN11      -0.2716
     23  ND2       28.7130   33.8630   23.6030 N.am   11  ASN11      -0.0877
     24  N         23.8810   34.4240   25.4910 N.am   12  LEU12      -0.1963
     25  CA        22.4260   34.5760   25.4680 C.3    12  LEU12       0.1728
     26  C         21.8810   34.8200   26.8890 C.2    12  LEU12       0.2616
     27  O         20.9150   35.5620   27.0860 O.2    12  LEU12      -0.2715
     28  CB        21.7720   33.3300   24.8640 C.3    12  LEU12       0.0311
     29  CG        20.2410   33.4520   24.6800 C.3    12  LEU12       0.0022
     30  CD1       19.9570   34.6310   23.7220 C.3    12  LEU12       0.0001
     31  CD2       19.6540   32.1470   24.0650 C.3    12  LEU12       0.0001
     32  N         22.4920   34.1860   27.8820 N.am   13  GLY13      -0.1955
     33  CA        22.0370   34.3810   29.2490 C.3    13  GLY13       0.1869
     34  C         22.0840   35.8410   29.6820 C.2    13  GLY13       0.2309
     35  O         21.1670   36.3200   30.3490 O.2    13  GLY13      -0.2863
     36  N         25.2290   28.4860   37.0760 N.3    31  SER31      -0.1202
     37  CA        26.5490   28.1990   36.5670 C.3    31  SER31       0.2020
     38  C         27.0550   26.8560   37.1320 C.2    31  SER31       0.2619
     39  O         26.5240   26.3340   38.1070 O.2    31  SER31      -0.2717
     40  CB        27.5190   29.3140   37.0010 C.3    31  SER31       0.2103
     41  OG        28.8400   29.0130   36.6190 O.3    31  SER31      -0.2182
     42  N         28.0610   26.2920   36.4910 N.am   32  ARG32      -0.1965
     43  CA        28.6700   25.0890   37.0350 C.3    32  ARG32       0.1729
     44  C         29.4220   25.5170   38.3250 C.2    32  ARG32       0.2616
     45  O         29.6930   24.6960   39.1940 O.2    32  ARG32      -0.2715
     46  CB        29.6660   24.5040   36.0390 C.3    32  ARG32       0.0348
     47  CG        29.0430   23.6940   34.8940 C.3    32  ARG32       0.0492
     48  CD        30.0990   23.3490   33.8330 C.3    32  ARG32       0.2205
     49  NE        30.5550   24.5450   33.1310 N.pl3  32  ARG32      -0.0865
     50  CZ        31.5450   24.5820   32.2330 C.cat  32  ARG32       0.5346
     51  NH1       32.2180   23.4710   31.8910 N.pl3  32  ARG32       0.1354
     52  NH2       31.8660   25.7300   31.6660 N.pl3  32  ARG32       0.1354
     53  N         29.7530   26.8010   38.4440 N.am   33  ARG33      -0.1977
     54  CA        30.4760   27.2890   39.6320 C.3    33  ARG33       0.1597
     55  C         29.7060   28.4190   40.3110 C.2    33  ARG33       0.2287
     56  O         29.4330   29.4470   39.6820 O.2    33  ARG33      -0.2864
     57  CB        31.8560   27.8100   39.2300 C.3    33  ARG33       0.0334
     58  CG        32.7920   26.7350   38.7070 C.3    33  ARG33       0.0492
     59  CD        34.1810   27.3100   38.4120 C.3    33  ARG33       0.2205
     60  NE        34.2080   28.1240   37.1950 N.pl3  33  ARG33      -0.0865
     61  CZ        34.9790   27.8530   36.1400 C.cat  33  ARG33       0.5346
     62  NH1       35.7850   26.7900   36.1620 N.pl3  33  ARG33       0.1354
     63  NH2       34.9440   28.6300   35.0630 N.pl3  33  ARG33       0.1354
     64  N         31.1250   31.9930   39.9690 N.3    36  LYS36      -0.1245
     65  CA        31.0220   32.5860   38.6380 C.3    36  LYS36       0.1561
     66  C         29.5970   33.1170   38.4410 C.2    36  LYS36       0.2260
     67  O         29.4040   34.2060   37.8900 O.2    36  LYS36      -0.2867
     68  CB        31.3580   31.5230   37.5600 C.3    36  LYS36       0.0271
     69  CG        31.4180   32.0950   36.1560 C.3    36  LYS36       0.0035
     70  CD        31.8150   31.0370   35.1340 C.3    36  LYS36       0.0206
     71  CE        31.7320   31.5730   33.6830 C.3    36  LYS36       0.1093
     72  NZ        32.2400   30.5320   32.6960 N.3    36  LYS36      -0.1314
     73  N         23.9440   25.6000   38.9570 N.3    58  ASN58      -0.1240
     74  CA        22.8070   25.1700   38.1440 C.3    58  ASN58       0.1653
     75  C         21.7700   24.3400   38.8850 C.2    58  ASN58       0.2266
     76  O         20.5740   24.5670   38.7280 O.2    58  ASN58      -0.2867
     77  CB        23.2800   24.3880   36.9120 C.3    58  ASN58       0.1155
     78  CG        23.8960   25.2910   35.8410 C.2    58  ASN58       0.2627
     79  OD1       23.4090   26.4000   35.5780 O.2    58  ASN58      -0.2716
     80  ND2       24.9520   24.8140   35.2130 N.am   58  ASN58      -0.0877
     81  N         17.6400   26.7490   29.0330 N.3    70  LEU70      -0.1231
     82  CA        18.9480   26.1140   28.8440 C.3    70  LEU70       0.1693
     83  C         19.8530   26.9490   27.9380 C.2    70  LEU70       0.2593
     84  O         19.9520   26.6750   26.7440 O.2    70  LEU70      -0.2718
     85  CB        18.7860   24.7240   28.2140 C.3    70  LEU70       0.0284
     86  CG        17.9330   23.7770   29.0510 C.3    70  LEU70       0.0019
     87  CD1       17.6510   22.5010   28.2650 C.3    70  LEU70       0.0001
     88  CD2       18.6860   23.4660   30.3430 C.3    70  LEU70       0.0001
     89  N         20.5050   27.9780   28.4920 N.am   71  THR71      -0.1939
     90  CA        21.4030   28.8040   27.6730 C.3    71  THR71       0.2028
     91  C         22.8160   28.2210   27.6990 C.2    71  THR71       0.2642
     92  O         23.7780   28.8700   28.1580 O.2    71  THR71      -0.2714
     93  CB        21.4360   30.2790   28.1610 C.3    71  THR71       0.1808
     94  OG1       21.7390   30.3340   29.5610 O.3    71  THR71      -0.2208
     95  CG2       20.0980   30.9480   27.9060 C.3    71  THR71       0.0379
     96  N         22.9210   26.9980   27.1640 N.am   72  ILE72      -0.1963
     97  CA        24.1630   26.2120   27.1370 C.3    72  ILE72       0.1712
     98  C         24.3530   25.6050   25.7330 C.2    72  ILE72       0.2458
     99  O         23.3650   25.2500   25.0960 O.2    72  ILE72      -0.2730
    100  CB        24.0430   25.0520   28.1810 C.3    72  ILE72       0.0289
    101  CG1       23.9230   25.6310   29.6050 C.3    72  ILE72       0.0022
    102  CG2       25.2500   24.0880   28.0820 C.3    72  ILE72       0.0023
    103  CD1       23.5550   24.5520   30.6580 C.3    72  ILE72       0.0001
    104  N         25.6110   25.4970   25.2220 N.am   73  PRO73      -0.2716
    105  CA        25.8360   24.9000   23.8850 C.3    73  PRO73       0.1536
    106  C         25.0710   23.5760   23.8890 C.2    73  PRO73       0.2598
    107  O         25.1380   22.8370   24.8690 O.2    73  PRO73      -0.2715
    108  CB        27.3420   24.7090   23.8470 C.3    73  PRO73       0.0310
    109  CG        27.8170   25.9880   24.5940 C.3    73  PRO73       0.0237
    110  CD        26.8770   26.0100   25.7910 C.3    73  PRO73       0.0939
    111  N         24.4030   23.2460   22.7810 N.am   74  TRP74      -0.1974
    112  CA        23.5220   22.0890   22.7910 C.3    74  TRP74       0.1640
    113  C         24.0480   20.7380   23.2360 C.2    74  TRP74       0.2290
    114  O         23.3600   20.0560   23.9870 O.2    74  TRP74      -0.2864
    115  CB        22.7910   21.9470   21.4470 C.3    74  TRP74       0.0576
    116  CG        23.5930   21.3480   20.3540 C.ar   74  TRP74       0.0006
    117  CD1       24.5540   21.9580   19.5980 C.ar   74  TRP74       0.0946
    118  CD2       23.4700   20.0180   19.8550 C.ar   74  TRP74       0.0152
    119  NE1       25.0430   21.0780   18.6360 N.ar   74  TRP74      -0.2442
    120  CE2       24.3920   19.8810   18.7800 C.ar   74  TRP74       0.0810
    121  CE3       22.6730   18.9210   20.2110 C.ar   74  TRP74       0.0012
    122  CZ2       24.5380   18.6810   18.0600 C.ar   74  TRP74       0.0191
    123  CZ3       22.8190   17.7150   19.4830 C.ar   74  TRP74       0.0001
    124  CH2       23.7500   17.6170   18.4220 C.ar   74  TRP74       0.0015
    125  N         26.3650   20.0050   25.3510 N.3    76  HIS76      -0.1241
    126  CA        26.5170   20.0280   26.8130 C.3    76  HIS76       0.1621
    127  C         25.1780   20.2220   27.5040 C.2    76  HIS76       0.2264
    128  O         24.9610   19.7100   28.5960 O.2    76  HIS76      -0.2867
    129  CB        27.4580   21.1590   27.2390 C.3    76  HIS76       0.0745
    130  CG        28.8530   20.9790   26.7420 C.ar   76  HIS76       0.0817
    131  ND1       29.5540   19.8070   26.9280 N.ar   76  HIS76      -0.2268
    132  CD2       29.6870   21.8230   26.0930 C.ar   76  HIS76       0.1154
    133  CE1       30.7630   19.9390   26.4140 C.ar   76  HIS76       0.1986
    134  NE2       30.8670   21.1520   25.9000 N.ar   76  HIS76      -0.2212
    135  N         23.5690   18.3150   30.8630 N.3    80  THR80      -0.1218
    136  CA        23.1190   19.0740   32.0320 C.3    80  THR80       0.1862
    137  C         21.6490   18.7840   32.3040 C.2    80  THR80       0.2287
    138  O         21.2500   18.5800   33.4560 O.2    80  THR80      -0.2866
    139  CB        23.3900   20.5790   31.7930 C.3    80  THR80       0.1770
    140  OG1       24.8000   20.7630   31.6890 O.3    80  THR80      -0.2211
    141  CG2       22.8640   21.4420   32.9450 C.3    80  THR80       0.0375
    142  N         16.4810   26.9260   23.6600 N.3    96  PRO96      -0.2102
    143  CA        16.8850   27.8840   22.6170 C.3    96  PRO96       0.1504
    144  C         18.0360   27.1850   21.8460 C.2    96  PRO96       0.2576
    145  O         18.7050   27.7820   21.0220 O.2    96  PRO96      -0.2718
    146  CB        17.4270   29.0720   23.4240 C.3    96  PRO96       0.0282
    147  CG        18.1860   28.3480   24.5630 C.3    96  PRO96       0.0208
    148  CD        17.2290   27.1590   24.9180 C.3    96  PRO96       0.0893
    149  N         18.2170   25.8970   22.1180 N.am   97  LEU97      -0.1966
    150  CA        19.3170   25.1110   21.5350 C.3    97  LEU97       0.1728
    151  C         19.2990   24.9940   20.0150 C.2    97  LEU97       0.2616
    152  O         18.2730   24.6530   19.4420 O.2    97  LEU97      -0.2715
    153  CB        19.2740   23.6940   22.1300 C.3    97  LEU97       0.0311
    154  CG        19.2440   23.5620   23.6590 C.3    97  LEU97       0.0022
    155  CD1       19.3660   22.0810   23.9970 C.3    97  LEU97       0.0001
    156  CD2       20.3620   24.3570   24.2880 C.3    97  LEU97       0.0001
    157  N         20.4390   25.2400   19.3650 N.am   98  VAL98      -0.1977
    158  CA        20.5300   25.1130   17.8980 C.3    98  VAL98       0.1596
    159  C         21.7030   24.2100   17.4920 C.2    98  VAL98       0.2287
    160  O         22.8330   24.5070   17.8220 O.2    98  VAL98      -0.2864
    161  CB        20.7810   26.4900   17.1950 C.3    98  VAL98       0.0276
    162  CG1       20.8310   26.2840   15.6700 C.3    98  VAL98       0.0022
    163  CG2       19.6750   27.5040   17.5590 C.3    98  VAL98       0.0022
    164  N         13.5070   31.1430   21.0820 N.3   132  LEU132     -0.1231
    165  CA        14.6240   32.0950   21.1680 C.3   132  LEU132      0.1693
    166  C         15.8350   31.8650   20.2740 C.2   132  LEU132      0.2592
    167  O         16.8350   32.5700   20.3850 O.2   132  LEU132     -0.2718
    168  CB        15.0770   32.2260   22.6340 C.3   132  LEU132      0.0284
    169  CG        13.9790   32.5240   23.6480 C.3   132  LEU132      0.0019
    170  CD1       14.4920   32.3350   25.0640 C.3   132  LEU132      0.0001
    171  CD2       13.4600   33.9300   23.4290 C.3   132  LEU132      0.0001
    172  N         15.7190   30.9130   19.3580 N.am  133  HIS133     -0.1976
    173  CA        16.8090   30.5520   18.4660 C.3   133  HIS133      0.1656
    174  C         17.2950   31.6420   17.5350 C.2   133  HIS133      0.2291
    175  O         18.4400   31.5900   17.0910 O.2   133  HIS133     -0.2864
    176  CB        16.3840   29.3670   17.5960 C.3   133  HIS133      0.0771
    177  CG        15.6080   28.3320   18.3410 C.ar  133  HIS133      0.0820
    178  ND1       14.2480   28.4270   18.5450 N.ar  133  HIS133     -0.2267
    179  CD2       16.0070   27.1900   18.9510 C.ar  133  HIS133      0.1154
    180  CE1       13.8400   27.3820   19.2420 C.ar  133  HIS133      0.1986
    181  NE2       14.8880   26.6160   19.5010 N.ar  133  HIS133     -0.2212
    182  N         17.4450   35.0230   18.1290 N.3   135  ILE135     -0.1231
    183  CA        17.7260   36.2680   18.8440 C.3   135  ILE135      0.1678
    184  C         19.2700   36.3880   18.9380 C.2   135  ILE135      0.2434
    185  O         19.8950   35.6990   19.7260 O.2   135  ILE135     -0.2733
    186  CB        17.1530   36.1990   20.2860 C.3   135  ILE135      0.0265
    187  CG1       15.6310   36.0200   20.2590 C.3   135  ILE135      0.0019
    188  CG2       17.5440   37.4580   21.0730 C.3   135  ILE135      0.0020
    189  CD1       14.8900   37.1040   19.5430 C.3   135  ILE135      0.0001
    190  N         19.8980   37.2700   18.1340 N.am  136  PRO136     -0.2718
    191  CA        21.3590   37.3880   18.2190 C.3   136  PRO136      0.1535
    192  C         21.7730   37.9450   19.5770 C.2   136  PRO136      0.2598
    193  O         21.3730   39.0370   19.9520 O.2   136  PRO136     -0.2715
    194  CB        21.7100   38.3070   17.0530 C.3   136  PRO136      0.0310
    195  CG        20.4600   39.1400   16.8770 C.3   136  PRO136      0.0237
    196  CD        19.3310   38.1700   17.1120 C.3   136  PRO136      0.0939
    197  N         22.6150   37.1970   20.2830 N.am  137  ALA137     -0.1978
    198  CA        23.0270   37.5620   21.6420 C.3   137  ALA137      0.1597
    199  C         23.6480   38.9560   21.8770 C.2   137  ALA137      0.2287
    200  O         23.2270   39.6480   22.8020 O.2   137  ALA137     -0.2864
    201  CB        23.9710   36.4650   22.2020 C.3   137  ALA137      0.0319
    202  N         18.2430   29.3520   12.2970 N.3   192  THR192     -0.1218
    203  CA        19.5400   29.9080   12.6760 C.3   192  THR192      0.1862
    204  C         20.6510   29.6710   11.6520 C.2   192  THR192      0.2287
    205  O         21.3440   30.6300   11.2460 O.2   192  THR192     -0.2866
    206  CB        19.8990   29.4420   14.1130 C.3   192  THR192      0.1770
    207  OG1       18.8640   29.8780   15.0010 O.3   192  THR192     -0.2211
    208  CG2       21.2070   30.0300   14.5740 C.3   192  THR192      0.0375
    209  N         24.7730   40.8300   12.7720 N.3   206  GLU206     -0.1245
    210  CA        23.7240   40.0220   13.4050 C.3   206  GLU206      0.1567
    211  C         22.3110   40.3890   13.0250 C.2   206  GLU206      0.2260
    212  O         21.9100   41.5660   13.0850 O.2   206  GLU206     -0.2867
    213  CB        23.8670   40.0850   14.9200 C.3   206  GLU206      0.0388
    214  CG        25.1680   39.4540   15.3630 C.3   206  GLU206      0.1160
    215  CD        25.4230   39.5790   16.8480 C.2   206  GLU206      0.3649
    216  OE1       26.4370   38.9800   17.2810 O.co2 206  GLU206     -0.2457
    217  OE2       24.6400   40.2540   17.5690 O.co2 206  GLU206     -0.2457
@<TRIPOS>BOND
     1   205   204    2
     2   204   203    1
     3   202   203    1
     4   203   206    1
     5   209   210    1
     6   211   212    2
     7   211   210    1
     8   210   213    1
     9   206   208    1
    10   206   207    1
    11   213   214    1
    12   214   215    1
    13   162   161    1
    14   215   216   ar
    15   215   217   ar
    16   195   194    1
    17   195   196    1
    18   194   191    1
    19   175   174    2
    20   196   190    1
    21   161   163    1
    22   161   158    1
    23   159   160    2
    24   159   158    1
    25   174   173    1
    26   176   177    1
    27   176   173    1
    28   158   157    1
    29   122   124   ar
    30   122   120   ar
    31   182   183    1
    32   190   191    1
    33   190   184   am
    34   191   192    1
    35   177   178   ar
    36   177   179   ar
    37   124   123   ar
    38   173   172    1
    39   178   180   ar
    40   119   120   ar
    41   119   117   ar
    42   120   118   ar
    43   183   184    1
    44   183   186    1
    45   184   185    2
    46   179   181   ar
    47   180   181   ar
    48   172   166   am
    49   157   151   am
    50   152   151    2
    51   123   121   ar
    52   189   187    1
    53   192   193    2
    54   192   197   am
    55   117   116   ar
    56   118   121   ar
    57   118   116   ar
    58   151   150    1
    59   187   186    1
    60   166   167    2
    61   166   165    1
    62   197   198    1
    63   186   188    1
    64   116   115    1
    65   145   144    2
    66   164   165    1
    67   165   168    1
    68   115   112    1
    69   150   149    1
    70   150   153    1
    71   198   199    1
    72   198   201    1
    73   144   149   am
    74   144   143    1
    75   199   200    2
    76   153   154    1
    77   143   146    1
    78   143   142    1
    79   168   169    1
    80   111   112    1
    81   111   106   am
    82   112   113    1
    83   113   114    2
    84   146   147    1
    85   171   169    1
    86    23    21   am
    87   169   170    1
    88   154   155    1
    89   154   156    1
    90   142   148    1
    91    30    29    1
    92   108   105    1
    93   108   109    1
    94   105   106    1
    95   105   104    1
    96   106   107    2
    97    31    29    1
    98    21    20    1
    99    21    22    2
   100    20    17    1
   101   147   148    1
   102   109   110    1
   103    29    28    1
   104    28    25    1
   105    99    98    2
   106   104    98   am
   107   104   110    1
   108   125   126    1
   109    25    24    1
   110    25    26    1
   111    24    18   am
   112    18    17    1
   113    18    19    2
   114    98    97    1
   115    17    16    1
   116   134   132   ar
   117   134   133   ar
   118   132   130   ar
   119   133   131   ar
   120    16    14   am
   121   130   131   ar
   122   130   129    1
   123    84    83    2
   124   126   129    1
   125   126   127    1
   126    26    27    2
   127    26    32   am
   128    97    96    1
   129    97   100    1
   130    96    91   am
   131   127   128    2
   132    90    91    1
   133    90    93    1
   134    90    89    1
   135    91    92    2
   136    32    33    1
   137    95    93    1
   138    83    89   am
   139    83    82    1
   140    14    15    2
   141    14    13    1
   142   102   100    1
   143    93    94    1
   144   100   101    1
   145    85    82    1
   146    85    86    1
   147    87    86    1
   148    82    81    1
   149    13    12    1
   150    86    88    1
   151    33    34    1
   152   101   103    1
   153    34    35    2
   154    12     7   am
   155     4     3    2
   156   135   136    1
   157     8     7    2
   158     7     6    1
   159     3     2    1
   160    52    50    1
   161   140   139    1
   162   139   136    1
   163   139   141    1
   164    51    50    1
   165     2     1    1
   166   136   137    1
   167    50    49    2
   168   137   138    2
   169     5     6    1
   170     6     9    1
   171    72    71    1
   172    10     9    1
   173    49    48    1
   174     9    11    1
   175    71    70    1
   176    48    47    1
   177    47    46    1
   178    63    61    1
   179    70    69    1
   180    80    78   am
   181    79    78    2
   182    78    77    1
   183    46    43    1
   184    61    62    1
   185    61    60    2
   186    69    68    1
   187    42    43    1
   188    42    38   am
   189    37    40    1
   190    37    36    1
   191    37    38    1
   192    41    40    1
   193    77    74    1
   194    43    44    1
   195    38    39    2
   196    60    59    1
   197    68    65    1
   198    67    66    2
   199    74    75    1
   200    74    73    1
   201    44    53   am
   202    44    45    2
   203    59    58    1
   204    66    65    1
   205    53    54    1
   206    65    64    1
   207    58    57    1
   208    76    75    2
   209    57    54    1
   210    54    55    1
   211    56    55    2
