@<TRIPOS>MOLECULE
tmp/1jayA01.pdb
 149 141 0 0 0
SMALL
GASTEIGER

@<TRIPOS>ATOM
      1  N         26.7130   34.2970   26.7050 N.3    11  ASN11      -0.1240
      2  CA        26.1590   35.2660   25.7360 C.3    11  ASN11       0.1653
      3  C         24.6470   35.4840   25.7040 C.2    11  ASN11       0.2266
      4  O         24.1670   36.6180   25.8570 O.2    11  ASN11      -0.2867
      5  CB        26.6580   34.9060   24.3290 C.3    11  ASN11       0.1155
      6  CG        28.1700   34.8800   24.2520 C.2    11  ASN11       0.2627
      7  OD1       28.8410   35.7680   24.7850 O.2    11  ASN11      -0.2716
      8  ND2       28.7130   33.8630   23.6030 N.am   11  ASN11      -0.0877
      9  N         16.4810   26.9260   23.6600 N.3    96  PRO96      -0.2116
     10  CA        16.8850   27.8840   22.6170 C.3    96  PRO96       0.1372
     11  C         18.0360   27.1850   21.8460 C.2    96  PRO96       0.2244
     12  O         18.7050   27.7820   21.0220 O.2    96  PRO96      -0.2868
     13  CB        17.4270   29.0720   23.4240 C.3    96  PRO96       0.0268
     14  CG        18.1860   28.3480   24.5630 C.3    96  PRO96       0.0207
     15  CD        17.2290   27.1590   24.9180 C.3    96  PRO96       0.0892
     16  N         20.4390   25.2400   19.3650 N.3    98  VAL98      -0.1245
     17  CA        20.5300   25.1130   17.8980 C.3    98  VAL98       0.1561
     18  C         21.7030   24.2100   17.4920 C.2    98  VAL98       0.2260
     19  O         22.8330   24.5070   17.8220 O.2    98  VAL98      -0.2867
     20  CB        20.7810   26.4900   17.1950 C.3    98  VAL98       0.0252
     21  CG1       20.8310   26.2840   15.6700 C.3    98  VAL98       0.0019
     22  CG2       19.6750   27.5040   17.5590 C.3    98  VAL98       0.0019
     23  N         24.0660   23.5210   15.0680 N.3   100  VAL100     -0.1245
     24  CA        24.5740   24.1280   13.8370 C.3   100  VAL100      0.1561
     25  C         26.0680   23.8650   13.7260 C.2   100  VAL100      0.2260
     26  O         26.7970   23.8800   14.7340 O.2   100  VAL100     -0.2867
     27  CB        24.2870   25.6750   13.8190 C.3   100  VAL100      0.0252
     28  CG1       24.8950   26.3390   15.0630 C.3   100  VAL100      0.0019
     29  CG2       24.8560   26.3340   12.5420 C.3   100  VAL100      0.0019
     30  N         29.6560   24.6150   11.0690 N.3   102  ARG102     -0.1245
     31  CA        30.1320   25.4440    9.9620 C.3   102  ARG102      0.1563
     32  C         30.8180   24.5230    8.9540 C.2   102  ARG102      0.2260
     33  O         31.1950   23.3830    9.2890 O.2   102  ARG102     -0.2867
     34  CB        31.0990   26.5220   10.4320 C.3   102  ARG102      0.0307
     35  CG        31.3020   27.6010    9.3530 C.3   102  ARG102      0.0489
     36  CD        32.2030   28.7280    9.8480 C.3   102  ARG102      0.2205
     37  NE        31.7130   29.2680   11.1130 N.pl3 102  ARG102     -0.0865
     38  CZ        32.3390   30.2050   11.8130 C.cat 102  ARG102      0.5346
     39  NH1       33.4850   30.7050   11.3660 N.pl3 102  ARG102      0.1354
     40  NH2       31.8220   30.6380   12.9550 N.pl3 102  ARG102      0.1354
     41  N         15.7190   30.9130   19.3580 N.3   133  HIS133     -0.1226
     42  CA        16.8090   30.5520   18.4660 C.3   133  HIS133      0.1752
     43  C         17.2950   31.6420   17.5350 C.2   133  HIS133      0.2597
     44  O         18.4400   31.5900   17.0910 O.2   133  HIS133     -0.2718
     45  CB        16.3840   29.3670   17.5960 C.3   133  HIS133      0.0759
     46  CG        15.6080   28.3320   18.3410 C.ar  133  HIS133      0.0818
     47  ND1       14.2480   28.4270   18.5450 N.ar  133  HIS133     -0.2268
     48  CD2       16.0070   27.1900   18.9510 C.ar  133  HIS133      0.1154
     49  CE1       13.8400   27.3820   19.2420 C.ar  133  HIS133      0.1986
     50  NE2       14.8880   26.6160   19.5010 N.ar  133  HIS133     -0.2212
     51  N         16.4350   32.6020   17.2070 N.am  134  THR134     -0.1939
     52  CA        16.8360   33.6250   16.2440 C.3   134  THR134      0.2028
     53  C         17.0900   34.9990   16.8490 C.2   134  THR134      0.2642
     54  O         16.9970   36.0050   16.1630 O.2   134  THR134     -0.2714
     55  CB        15.7800   33.7400   15.1100 C.3   134  THR134      0.1808
     56  OG1       14.5190   34.1520   15.6500 O.3   134  THR134     -0.2208
     57  CG2       15.5820   32.3550   14.4180 C.3   134  THR134      0.0379
     58  N         17.4450   35.0230   18.1290 N.am  135  ILE135     -0.1963
     59  CA        17.7260   36.2680   18.8440 C.3   135  ILE135      0.1712
     60  C         19.2700   36.3880   18.9380 C.2   135  ILE135      0.2458
     61  O         19.8950   35.6990   19.7260 O.2   135  ILE135     -0.2730
     62  CB        17.1530   36.1990   20.2860 C.3   135  ILE135      0.0289
     63  CG1       15.6310   36.0200   20.2590 C.3   135  ILE135      0.0022
     64  CG2       17.5440   37.4580   21.0730 C.3   135  ILE135      0.0023
     65  CD1       14.8900   37.1040   19.5430 C.3   135  ILE135      0.0001
     66  N         19.8980   37.2700   18.1340 N.am  136  PRO136     -0.2716
     67  CA        21.3590   37.3880   18.2190 C.3   136  PRO136      0.1536
     68  C         21.7730   37.9450   19.5770 C.2   136  PRO136      0.2598
     69  O         21.3730   39.0370   19.9520 O.2   136  PRO136     -0.2715
     70  CB        21.7100   38.3070   17.0530 C.3   136  PRO136      0.0310
     71  CG        20.4600   39.1400   16.8770 C.3   136  PRO136      0.0237
     72  CD        19.3310   38.1700   17.1120 C.3   136  PRO136      0.0939
     73  N         22.6150   37.1970   20.2830 N.am  137  ALA137     -0.1964
     74  CA        23.0270   37.5620   21.6420 C.3   137  ALA137      0.1728
     75  C         23.6480   38.9560   21.8770 C.2   137  ALA137      0.2616
     76  O         23.2270   39.6480   22.8020 O.2   137  ALA137     -0.2715
     77  CB        23.9710   36.4650   22.2020 C.3   137  ALA137      0.0334
     78  N         24.6400   39.3560   21.0760 N.am  138  ALA138     -0.1963
     79  CA        25.2650   40.6520   21.3130 C.3   138  ALA138      0.1728
     80  C         24.2770   41.8020   21.1910 C.2   138  ALA138      0.2616
     81  O         24.1780   42.6400   22.0880 O.2   138  ALA138     -0.2715
     82  CB        26.4400   40.8480   20.3740 C.3   138  ALA138      0.0334
     83  N         23.5200   41.8450   20.0980 N.am  139  ARG139     -0.1977
     84  CA        22.5370   42.9060   19.9370 C.3   139  ARG139      0.1597
     85  C         21.4790   42.8530   21.0230 C.2   139  ARG139      0.2287
     86  O         21.0470   43.8900   21.5450 O.2   139  ARG139     -0.2864
     87  CB        21.8520   42.8150   18.5620 C.3   139  ARG139      0.0334
     88  CG        22.7350   43.1910   17.3840 C.3   139  ARG139      0.0492
     89  CD        21.9200   43.2230   16.0620 C.3   139  ARG139      0.2205
     90  NE        20.8090   44.1740   16.0710 N.pl3 139  ARG139     -0.0865
     91  CZ        19.8390   44.1860   15.1580 C.cat 139  ARG139      0.5346
     92  NH1       19.8590   43.2840   14.1800 N.pl3 139  ARG139      0.1354
     93  NH2       18.8670   45.0990   15.2010 N.pl3 139  ARG139      0.1354
     94  N         22.5890   44.4070   24.2710 N.3   142  ASN142     -0.1240
     95  CA        22.8920   45.8480   24.2320 C.3   142  ASN142      0.1653
     96  C         21.6140   46.6150   24.5430 C.2   142  ASN142      0.2266
     97  O         20.7240   46.7330   23.7040 O.2   142  ASN142     -0.2867
     98  CB        23.4230   46.2410   22.8540 C.3   142  ASN142      0.1155
     99  CG        23.8620   47.7170   22.7760 C.2   142  ASN142      0.2627
    100  OD1       24.5820   48.0960   21.8500 O.2   142  ASN142     -0.2716
    101  ND2       23.4250   48.5380   23.7250 N.am  142  ASN142     -0.0877
    102  N         18.2430   29.3520   12.2970 N.3   192  THR192     -0.1218
    103  CA        19.5400   29.9080   12.6760 C.3   192  THR192      0.1862
    104  C         20.6510   29.6710   11.6520 C.2   192  THR192      0.2287
    105  O         21.3440   30.6300   11.2460 O.2   192  THR192     -0.2866
    106  CB        19.8990   29.4420   14.1130 C.3   192  THR192      0.1770
    107  OG1       18.8640   29.8780   15.0010 O.3   192  THR192     -0.2211
    108  CG2       21.2070   30.0300   14.5740 C.3   192  THR192      0.0375
    109  N         20.0330   31.9850    8.8390 N.3   195  ILE195     -0.1231
    110  CA        20.4310   33.3590    9.1420 C.3   195  ILE195      0.1692
    111  C         21.9530   33.5220    9.1060 C.2   195  ILE195      0.2591
    112  O         22.4590   34.5020    8.5510 O.2   195  ILE195     -0.2718
    113  CB        19.8880   33.7980   10.5150 C.3   195  ILE195      0.0266
    114  CG1       18.3700   33.9650   10.4200 C.3   195  ILE195      0.0019
    115  CG2       20.5590   35.1200   10.9710 C.3   195  ILE195      0.0020
    116  CD1       17.6860   34.1420   11.7820 C.3   195  ILE195      0.0001
    117  N         22.6880   32.5680    9.6860 N.am  196  LEU196     -0.1980
    118  CA        24.1510   32.6520    9.6750 C.3   196  LEU196      0.1596
    119  C         24.6840   32.6490    8.2370 C.2   196  LEU196      0.2287
    120  O         25.6900   33.3080    7.9480 O.2   196  LEU196     -0.2864
    121  CB        24.7730   31.5030   10.4740 C.3   196  LEU196      0.0297
    122  CG        24.4260   31.5580   11.9700 C.3   196  LEU196      0.0022
    123  CD1       24.9110   30.2950   12.6830 C.3   196  LEU196      0.0001
    124  CD2       25.0700   32.7870   12.5890 C.3   196  LEU196      0.0001
    125  N         24.1070   36.0810    6.7600 N.3   199  MET199     -0.1245
    126  CA        25.1120   37.0140    7.2660 C.3   199  MET199      0.1570
    127  C         26.4540   36.8210    6.5480 C.2   199  MET199      0.2261
    128  O         27.1080   37.7950    6.1450 O.2   199  MET199     -0.2867
    129  CB        25.2870   36.8280    8.7780 C.3   199  MET199      0.0387
    130  CG        24.0310   37.2080    9.5850 C.3   199  MET199      0.0595
    131  SD        24.0880   36.5720   11.3070 S.3   199  MET199     -0.1393
    132  CE        25.7900   37.0920   11.7460 C.3   199  MET199      0.0692
    133  N         24.7730   40.8300   12.7720 N.3   206  GLU206     -0.1231
    134  CA        23.7240   40.0220   13.4050 C.3   206  GLU206      0.1699
    135  C         22.3110   40.3890   13.0250 C.2   206  GLU206      0.2592
    136  O         21.9100   41.5660   13.0850 O.2   206  GLU206     -0.2718
    137  CB        23.8670   40.0850   14.9200 C.3   206  GLU206      0.0402
    138  CG        25.1680   39.4540   15.3630 C.3   206  GLU206      0.1161
    139  CD        25.4230   39.5790   16.8480 C.2   206  GLU206      0.3649
    140  OE1       26.4370   38.9800   17.2810 O.co2 206  GLU206     -0.2457
    141  OE2       24.6400   40.2540   17.5690 O.co2 206  GLU206     -0.2457
    142  N         21.5310   39.3590   12.6790 N.am  207  LEU207     -0.1980
    143  CA        20.1580   39.5630   12.2530 C.3   207  LEU207      0.1596
    144  C         19.1860   38.6570   12.9830 C.2   207  LEU207      0.2287
    145  O         19.5550   37.5770   13.4640 O.2   207  LEU207     -0.2864
    146  CB        20.0200   39.2620   10.7570 C.3   207  LEU207      0.0297
    147  CG        20.8890   40.0370    9.7670 C.3   207  LEU207      0.0022
    148  CD1       20.8300   39.3740    8.4020 C.3   207  LEU207      0.0001
    149  CD2       20.3980   41.4740    9.7130 C.3   207  LEU207      0.0001
@<TRIPOS>BOND
     1   128   127    2
     2   127   126    1
     3   125   126    1
     4   126   129    1
     5   120   119    2
     6   119   118    1
     7   148   147    1
     8   112   111    2
     9   129   130    1
    10   109   110    1
    11    32    33    2
    12    32    31    1
    13   111   110    1
    14   111   117   am
    15   110   113    1
    16    35    36    1
    17    35    34    1
    18   130   131    1
    19   118   117    1
    20   118   121    1
    21   149   147    1
    22   147   146    1
    23    36    37    1
    24    31    34    1
    25    31    30    1
    26   114   113    1
    27   114   116    1
    28   121   122    1
    29   113   115    1
    30   146   143    1
    31    37    38    2
    32   105   104    2
    33   131   132    1
    34    39    38    1
    35   104   103    1
    36    38    40    1
    37   122   124    1
    38   122   123    1
    39   143   142    1
    40   143   144    1
    41   102   103    1
    42    29    27    1
    43   103   106    1
    44   142   135   am
    45   133   134    1
    46   144   145    2
    47   135   136    2
    48   135   134    1
    49   134   137    1
    50    25    24    1
    51    25    26    2
    52    27    24    1
    53    27    28    1
    54    24    23    1
    55   106   108    1
    56   106   107    1
    57    92    91    1
    58    57    55    1
    59   137   138    1
    60    55    56    1
    61    55    52    1
    62    91    93    1
    63    91    90    2
    64   138   139    1
    65    21    20    1
    66    89    90    1
    67    89    88    1
    68    54    53    2
    69    52    53    1
    70    52    51    1
    71   139   140   ar
    72   139   141   ar
    73    53    58   am
    74    71    70    1
    75    71    72    1
    76    70    67    1
    77    44    43    2
    78    72    66    1
    79    20    22    1
    80    20    17    1
    81    51    43   am
    82    88    87    1
    83    18    19    2
    84    18    17    1
    85    43    42    1
    86    45    46    1
    87    45    42    1
    88    17    16    1
    89    58    59    1
    90    66    67    1
    91    66    60   am
    92    67    68    1
    93    46    47   ar
    94    46    48   ar
    95    42    41    1
    96    47    49   ar
    97    87    84    1
    98    59    60    1
    99    59    62    1
   100    60    61    2
   101    48    50   ar
   102    49    50   ar
   103    65    63    1
   104    68    69    2
   105    68    73   am
   106    84    83    1
   107    84    85    1
   108    83    80   am
   109    63    62    1
   110    73    74    1
   111    62    64    1
   112    82    79    1
   113    12    11    2
   114    85    86    2
   115    78    79    1
   116    78    75   am
   117    80    79    1
   118    80    81    2
   119    74    75    1
   120    74    77    1
   121    11    10    1
   122   100    99    2
   123    75    76    2
   124    10    13    1
   125    10     9    1
   126    99    98    1
   127    99   101   am
   128    98    95    1
   129    13    14    1
   130     8     6   am
   131     9    15    1
   132    97    96    2
   133    95    94    1
   134    95    96    1
   135     6     5    1
   136     6     7    2
   137     5     2    1
   138    14    15    1
   139     3     2    1
   140     3     4    2
   141     2     1    1
