@<TRIPOS>MOLECULE
tmp/1jboB00.pdb
 215 204 0 0 0
SMALL
GASTEIGER

@<TRIPOS>ATOM
      1  N         22.9030   28.0270    8.2130 N.3    59  LEU59      -0.1231
      2  CA        21.7530   27.5870    7.4090 C.3    59  LEU59       0.1693
      3  C         20.7270   28.7020    7.2460 C.2    59  LEU59       0.2588
      4  O         20.2340   28.9230    6.1410 O.2    59  LEU59      -0.2718
      5  CB        21.0540   26.2850    7.9100 C.3    59  LEU59       0.0284
      6  CG        19.8150   25.7610    7.2310 C.3    59  LEU59       0.0019
      7  CD1       20.1690   25.3880    5.8350 C.3    59  LEU59       0.0001
      8  CD2       19.2040   24.5930    8.0550 C.3    59  LEU59       0.0001
      9  N         20.2700   29.2570    8.4090 N.am   60  PHE60      -0.2029
     10  CA        19.1920   30.1980    8.3090 C.3    60  PHE60       0.1325
     11  C         19.6290   31.5250    7.6410 C.3    60  PHE60       0.2039
     12  O         18.7090   32.2200    7.0080 O.3    60  PHE60      -0.2185
     13  CB        18.5320   30.4780    9.6410 C.3    60  PHE60       0.0507
     14  CG        18.0790   29.1930   10.3630 C.ar   60  PHE60      -0.0204
     15  CD1       17.3560   28.2050    9.7330 C.ar   60  PHE60      -0.0042
     16  CD2       18.4100   29.0330   11.7370 C.ar   60  PHE60      -0.0042
     17  CE1       16.9690   27.0640   10.3570 C.ar   60  PHE60      -0.0003
     18  CE2       18.0560   27.9280   12.3920 C.ar   60  PHE60      -0.0003
     19  CZ        17.3600   26.9510   11.7500 C.ar   60  PHE60      -0.0000
     20  N         13.3420   29.5620    5.4410 N.3    66  LEU66      -0.1245
     21  CA        13.0480   28.6350    6.4860 C.3    66  LEU66       0.1561
     22  C         12.5180   29.2870    7.7870 C.2    66  LEU66       0.2260
     23  O         11.6640   28.6640    8.4770 O.2    66  LEU66      -0.2867
     24  CB        14.2520   27.8170    6.9290 C.3    66  LEU66       0.0270
     25  CG        14.8640   27.0110    5.7590 C.3    66  LEU66       0.0019
     26  CD1       16.1680   26.4070    6.2820 C.3    66  LEU66       0.0001
     27  CD2       14.0070   25.9700    5.2820 C.3    66  LEU66       0.0001
     28  N         10.8320   26.3190    9.7640 N.3    72  ALA72      -0.1245
     29  CA        11.5190   26.4410   11.0870 C.3    72  ALA72       0.1562
     30  C         11.0130   27.7690   11.7790 C.2    72  ALA72       0.2260
     31  O         11.6250   28.1680   12.7820 O.2    72  ALA72      -0.2867
     32  CB        13.0060   26.4860   10.9790 C.3    72  ALA72       0.0290
     33  N          8.3600   26.2260   18.4140 N.3    76  ARG76      -0.1231
     34  CA         8.2220   24.7480   18.5110 C.3    76  ARG76       0.1694
     35  C          8.9780   24.1430   17.3530 C.2    76  ARG76       0.2588
     36  O          9.6200   23.1100   17.5320 O.2    76  ARG76      -0.2718
     37  CB         6.6890   24.3170   18.4930 C.3    76  ARG76       0.0321
     38  CG         6.4700   22.8280   18.8150 C.3    76  ARG76       0.0489
     39  CD         4.8860   22.4640   18.6670 C.3    76  ARG76       0.2205
     40  NE         4.5470   21.7540   17.4220 N.pl3  76  ARG76      -0.0865
     41  CZ         3.3740   21.0930   17.2360 C.cat  76  ARG76       0.5346
     42  NH1        2.3750   21.2530   18.0890 N.pl3  76  ARG76       0.1354
     43  NH2        3.1480   20.3430   16.1510 N.pl3  76  ARG76       0.1354
     44  N          8.7210   24.6700   16.1500 N.am   77  ARG77      -0.2033
     45  CA         9.3990   24.1570   14.8990 C.3    77  ARG77       0.1283
     46  C         10.8920   24.4080   14.9840 C.3    77  ARG77       0.2036
     47  O         11.7310   23.5130   14.5910 O.3    77  ARG77      -0.2185
     48  CB         8.7770   24.6400   13.6260 C.3    77  ARG77       0.0281
     49  CG         7.3320   23.9980   13.4170 C.3    77  ARG77       0.0488
     50  CD         6.8440   23.9270   12.0170 C.3    77  ARG77       0.2205
     51  NE         6.7570   25.2100   11.3280 N.pl3  77  ARG77      -0.0865
     52  CZ         5.6790   25.9860   11.3250 C.cat  77  ARG77       0.5346
     53  NH1        4.5760   25.5870   11.9730 N.pl3  77  ARG77       0.1354
     54  NH2        5.7240   27.1410   10.6050 N.pl3  77  ARG77       0.1354
     55  N         12.3570   21.8400   17.3030 N.3    80  ALA80      -0.1231
     56  CA        12.3960   20.5180   16.6340 C.3    80  ALA80       0.1694
     57  C         13.5980   20.4420   15.6470 C.2    80  ALA80       0.2592
     58  O         14.2390   19.4000   15.5450 O.2    80  ALA80      -0.2718
     59  CB        11.1230   20.1710   15.9010 C.3    80  ALA80       0.0304
     60  N         13.8220   21.5110   14.9120 N.am   81  CYS81      -0.1970
     61  CA        14.8560   21.5350   13.8760 C.3    81  CYS81       0.1712
     62  C         16.2190   21.4080   14.5480 C.2    81  CYS81       0.2296
     63  O         17.0690   20.5560   14.1760 O.2    81  CYS81      -0.2864
     64  CB        14.7760   22.8270   13.0270 C.3    81  CYS81       0.0983
     65  SG        16.1630   23.0390   11.9010 S.3    81  CYS81      -0.0798
     66  N         16.8220   20.1350   17.5410 N.3    83  ARG83      -0.1231
     67  CA        16.8000   18.7240   18.0840 C.3    83  ARG83       0.1694
     68  C         17.2620   17.7410   17.0480 C.2    83  ARG83       0.2592
     69  O         18.0490   16.8590   17.3400 O.2    83  ARG83      -0.2718
     70  CB        15.4510   18.4060   18.6160 C.3    83  ARG83       0.0321
     71  CG        15.2410   17.0560   19.0720 C.3    83  ARG83       0.0489
     72  CD        13.7850   16.6380   18.9200 C.3    83  ARG83       0.2205
     73  NE        13.3290   16.6220   17.4670 N.pl3  83  ARG83      -0.0865
     74  CZ        12.0980   16.7390   17.0800 C.cat  83  ARG83       0.5346
     75  NH1       11.0840   16.9320   17.9530 N.pl3  83  ARG83       0.1354
     76  NH2       11.8610   16.6570   15.7890 N.pl3  83  ARG83       0.1354
     77  N         16.6980   17.8490   15.8410 N.am   84  ASP84      -0.1960
     78  CA        17.0840   16.9210   14.8160 C.3    84  ASP84       0.1840
     79  C         18.5870   17.0210   14.4640 C.2    84  ASP84       0.2621
     80  O         19.2820   15.9450   14.2890 O.2    84  ASP84      -0.2715
     81  CB        16.3500   17.2140   13.4840 C.3    84  ASP84       0.1450
     82  CG        14.9150   16.7450   13.4760 C.2    84  ASP84       0.3671
     83  OD1       14.3400   16.3240   14.5110 O.co2  84  ASP84      -0.2456
     84  OD2       14.2460   16.7470   12.3810 O.co2  84  ASP84      -0.2456
     85  N         19.1610   18.2550   14.4410 N.am   85  MET85      -0.1977
     86  CA        20.5860   18.4400   14.1920 C.3    85  MET85       0.1605
     87  C         21.3840   17.6640   15.3350 C.2    85  MET85       0.2287
     88  O         22.4160   16.9930   15.0430 O.2    85  MET85      -0.2864
     89  CB        20.9780   19.9220   14.0850 C.3    85  MET85       0.0413
     90  CG        20.3280   20.5940   12.8650 C.3    85  MET85       0.0598
     91  SD        20.6370   22.3250   12.7380 S.3    85  MET85      -0.1393
     92  CE        22.4480   22.3010   12.5450 C.3    85  MET85       0.0692
     93  N         20.3660   15.2410   17.2710 N.3    87  ILE87      -0.1231
     94  CA        20.1590   13.7980   17.1090 C.3    87  ILE87       0.1692
     95  C         21.0900   13.2210   16.0690 C.2    87  ILE87       0.2591
     96  O         21.7580   12.1170   16.3020 O.2    87  ILE87      -0.2718
     97  CB        18.6740   13.5050   16.7860 C.3    87  ILE87       0.0266
     98  CG1       17.8120   13.6770   18.0230 C.3    87  ILE87       0.0019
     99  CG2       18.4810   12.0780   16.2050 C.3    87  ILE87       0.0020
    100  CD1       16.3410   13.6940   17.5960 C.3    87  ILE87       0.0001
    101  N         21.0860   13.8420   14.8650 N.am   88  ILE88      -0.1980
    102  CA        21.9120   13.3000   13.7860 C.3    88  ILE88       0.1595
    103  C         23.4210   13.3200   14.2150 C.2    88  ILE88       0.2287
    104  O         24.1810   12.3390   13.9890 O.2    88  ILE88      -0.2864
    105  CB        21.6540   14.0220   12.5240 C.3    88  ILE88       0.0276
    106  CG1       20.2110   13.7490   12.1280 C.3    88  ILE88       0.0022
    107  CG2       22.6260   13.6020   11.4500 C.3    88  ILE88       0.0022
    108  CD1       19.5880   14.7390   10.9770 C.3    88  ILE88       0.0001
    109  N         24.6320   13.1580   17.2850 N.3    90  ARG90      -0.1231
    110  CA        24.7400   12.1590   18.3100 C.3    90  ARG90       0.1694
    111  C         24.9550   10.7470   17.6550 C.2    90  ARG90       0.2592
    112  O         25.9150   10.0020   18.0110 O.2    90  ARG90      -0.2718
    113  CB        23.5400   12.2090   19.2580 C.3    90  ARG90       0.0321
    114  CG        23.4710   11.1710   20.2910 C.3    90  ARG90       0.0489
    115  CD        22.5530   11.5100   21.4480 C.3    90  ARG90       0.2205
    116  NE        21.1890   11.5970   21.0720 N.pl3  90  ARG90      -0.0865
    117  CZ        20.3450   10.5990   21.0800 C.cat  90  ARG90       0.5346
    118  NH1       20.8080    9.3970   21.3800 N.pl3  90  ARG90       0.1354
    119  NH2       19.0170   10.7660   20.8060 N.pl3  90  ARG90       0.1354
    120  N         24.0960   10.4040   16.7210 N.am   91  TYR91      -0.1976
    121  CA        24.1780    9.0250   16.1120 C.3    91  TYR91       0.1639
    122  C         25.4190    8.9190   15.2030 C.2    91  TYR91       0.2290
    123  O         26.0250    7.8310   15.1300 O.2    91  TYR91      -0.2864
    124  CB        22.8740    8.6580   15.3500 C.3    91  TYR91       0.0560
    125  CG        21.7970    8.1960   16.2930 C.ar   91  TYR91      -0.0198
    126  CD1       21.7720    6.8980   16.7960 C.ar   91  TYR91      -0.0009
    127  CD2       20.7310    9.0220   16.6560 C.ar   91  TYR91      -0.0009
    128  CE1       20.8360    6.5300   17.6680 C.ar   91  TYR91       0.0417
    129  CE2       19.8160    8.6020   17.5150 C.ar   91  TYR91       0.0417
    130  CZ        19.7970    7.3410   18.0170 C.ar   91  TYR91       0.1957
    131  OH        18.7950    7.0090   18.9890 O.3    91  TYR91      -0.2866
    132  N         18.8450    3.1770   13.7740 N.3   107  ARG107     -0.1227
    133  CA        18.1560    3.9320   14.8410 C.3   107  ARG107      0.1737
    134  C         17.8280    5.3660   14.4470 C.2   107  ARG107      0.2595
    135  O         17.0020    5.9970   15.1290 O.2   107  ARG107     -0.2718
    136  CB        18.9400    3.9200   16.1660 C.3   107  ARG107      0.0576
    137  CG        18.9890    2.5160   16.7910 C.2   107  ARG107      0.0160
    138  CD        19.9770    1.4900   16.3380 C.2   107  ARG107      0.1886
    139  NE        20.0100    0.1720   16.9800 N.pl3 107  ARG107     -0.0578
    140  CZ        20.7200   -0.8480   16.4700 C.cat 107  ARG107      0.5393
    141  NH1       21.3710   -0.7240   15.3030 N.pl3 107  ARG107      0.1358
    142  NH2       20.7210   -1.9980   17.0840 N.pl3 107  ARG107      0.1358
    143  N         18.4690    5.8830   13.4110 N.am  108  CYS108     -0.1970
    144  CA        18.3550    7.2800   12.9830 C.3   108  CYS108      0.1712
    145  C         17.8820    7.4390   11.5280 C.2   108  CYS108      0.2296
    146  O         16.8470    8.0750   11.3180 O.2   108  CYS108     -0.2864
    147  CB        19.6760    8.0100   13.2180 C.3   108  CYS108      0.0983
    148  SG        19.6150    9.7790   12.9280 S.3   108  CYS108     -0.0798
    149  N         13.7570    8.1430    7.6650 N.3   112  LEU112     -0.1245
    150  CA        13.8260    9.5510    7.9580 C.3   112  LEU112      0.1561
    151  C         13.3200   10.3890    6.7520 C.2   112  LEU112      0.2260
    152  O         12.5790   11.4070    6.9350 O.2   112  LEU112     -0.2867
    153  CB        15.1800    9.9510    8.4600 C.3   112  LEU112      0.0270
    154  CG        15.3870   11.4180    8.9440 C.3   112  LEU112      0.0019
    155  CD1       14.2710   11.9450    9.8940 C.3   112  LEU112      0.0001
    156  CD2       16.7770   11.6590    9.5540 C.3   112  LEU112      0.0001
    157  N          9.6310   10.4580    6.7830 N.3   115  THR115     -0.1203
    158  CA         9.1380   11.2880    7.8750 C.3   115  THR115      0.1994
    159  C          9.0980   12.7620    7.4190 C.2   115  THR115      0.2617
    160  O          8.0800   13.4290    7.6100 O.2   115  THR115     -0.2717
    161  CB        10.0920   11.1150    9.1080 C.3   115  THR115      0.1784
    162  OG1        9.8490    9.8260    9.6720 O.3   115  THR115     -0.2211
    163  CG2        9.7910   12.1430   10.2410 C.3   115  THR115      0.0376
    164  N         10.1840   13.2120    6.7630 N.am  116  TYR116     -0.1975
    165  CA        10.3350   14.5950    6.3260 C.3   116  TYR116      0.1639
    166  C          9.3910   14.9010    5.1530 C.2   116  TYR116      0.2290
    167  O          8.7390   15.9070    5.1340 O.2   116  TYR116     -0.2864
    168  CB        11.7880   14.8870    5.9910 C.3   116  TYR116      0.0560
    169  CG        12.7690   15.0600    7.1660 C.ar  116  TYR116     -0.0198
    170  CD1       12.3360   15.5580    8.3760 C.ar  116  TYR116     -0.0009
    171  CD2       14.0850   14.8720    6.9940 C.ar  116  TYR116     -0.0009
    172  CE1       13.2200   15.8020    9.4250 C.ar  116  TYR116      0.0417
    173  CE2       14.9360   15.0330    8.0640 C.ar  116  TYR116      0.0417
    174  CZ        14.5030   15.5190    9.2620 C.ar  116  TYR116      0.1957
    175  OH        15.4770   15.6840   10.2650 O.3   116  TYR116     -0.2866
    176  N          5.8780   15.4450    6.7110 N.3   119  LEU119     -0.1245
    177  CA         5.8600   16.7300    7.4300 C.3   119  LEU119      0.1561
    178  C          5.8610   17.9430    6.5360 C.2   119  LEU119      0.2260
    179  O          5.4540   19.0490    6.9600 O.2   119  LEU119     -0.2867
    180  CB         7.1040   16.7630    8.3830 C.3   119  LEU119      0.0270
    181  CG         7.0470   15.8670    9.6110 C.3   119  LEU119      0.0019
    182  CD1        8.4480   15.7430   10.4040 C.3   119  LEU119      0.0001
    183  CD2        5.9630   16.1660   10.5410 C.3   119  LEU119      0.0001
    184  N          8.9700   18.9080    5.6850 N.3   121  THR121     -0.1204
    185  CA        10.3010   19.4220    5.9960 C.3   121  THR121      0.1979
    186  C         11.1860   19.2500    4.7210 C.2   121  THR121      0.2459
    187  O         11.2400   18.0950    4.2160 O.2   121  THR121     -0.2732
    188  CB        10.9050   18.6630    7.1300 C.3   121  THR121      0.1783
    189  OG1       10.0930   18.8140    8.3100 O.3   121  THR121     -0.2211
    190  CG2       12.3910   19.1370    7.4320 C.3   121  THR121      0.0376
    191  N         11.9460   20.2780    4.2890 N.am  122  PRO122     -0.2728
    192  CA        12.8730   20.1920    3.1580 C.3   122  PRO122      0.1401
    193  C         14.1460   19.3690    3.4630 C.2   122  PRO122      0.2269
    194  O         15.0910   19.9180    4.0490 O.2   122  PRO122     -0.2865
    195  CB        13.1540   21.6670    2.7830 C.3   122  PRO122      0.0296
    196  CG        13.0450   22.3330    4.1850 C.3   122  PRO122      0.0237
    197  CD        11.9150   21.6550    4.9070 C.3   122  PRO122      0.0939
    198  N         17.5620   20.8470    2.6740 N.3   125  SER125     -0.1202
    199  CA        18.0900   21.8010    3.7080 C.3   125  SER125      0.2020
    200  C         18.6740   21.1370    4.9690 C.2   125  SER125      0.2618
    201  O         19.7100   21.6160    5.4350 O.2   125  SER125     -0.2717
    202  CB        17.0090   22.7950    4.1040 C.3   125  SER125      0.2103
    203  OG        16.4460   23.4930    3.0040 O.3   125  SER125     -0.2182
    204  N         18.1020   20.0050    5.3120 N.am  126  VAL126     -0.1979
    205  CA        18.6740   19.1660    6.3820 C.3   126  VAL126      0.1595
    206  C         20.0570   18.7390    5.9740 C.2   126  VAL126      0.2287
    207  O         21.0080   18.7490    6.7010 O.2   126  VAL126     -0.2864
    208  CB        17.7740   17.9440    6.7750 C.3   126  VAL126      0.0276
    209  CG1       18.4390   17.1820    7.9490 C.3   126  VAL126      0.0022
    210  CG2       16.4150   18.4200    7.1510 C.3   126  VAL126      0.0022
    211  N         22.5860   21.4070    6.4790 N.3   129  ALA129     -0.1245
    212  CA        22.9390   21.4580    7.9100 C.3   129  ALA129      0.1562
    213  C         24.0010   20.3890    8.3120 C.2   129  ALA129      0.2260
    214  O         24.8930   20.6510    9.0870 O.2   129  ALA129     -0.2867
    215  CB        21.6920   21.3580    8.7890 C.3   129  ALA129      0.0290
@<TRIPOS>BOND
     1   198   199    1
     2   195   192    1
     3   195   196    1
     4   203   202    1
     5   192   193    1
     6   192   191    1
     7   193   194    2
     8   199   202    1
     9   199   200    1
    10   196   197    1
    11   187   186    2
    12   191   186   am
    13   191   197    1
    14   186   185    1
    15   200   204   am
    16   200   201    2
    17   167   166    2
    18   166   165    1
    19    27    25    1
    20   204   205    1
    21    20    21    1
    22   184   185    1
    23    25    26    1
    24    25    24    1
    25     7     6    1
    26   206   205    1
    27   206   207    2
    28   168   165    1
    29   168   169    1
    30   185   188    1
    31     4     3    2
    32   165   164    1
    33   205   208    1
    34   211   212    1
    35    21    24    1
    36    21    22    1
    37   178   179    2
    38   178   177    1
    39   176   177    1
    40   151   152    2
    41   151   150    1
    42   164   159   am
    43   208   210    1
    44   208   209    1
    45   157   158    1
    46   171   169   ar
    47   171   173   ar
    48    12    11    1
    49   188   190    1
    50   188   189    1
    51   169   170   ar
    52     6     5    1
    53     6     8    1
    54     3     2    1
    55     3     9   am
    56     2     5    1
    57     2     1    1
    58   159   160    2
    59   159   158    1
    60   177   180    1
    61    11    10    1
    62   149   150    1
    63    22    23    2
    64   158   161    1
    65   212   213    1
    66   212   215    1
    67   150   153    1
    68   173   174   ar
    69    10     9    1
    70    10    13    1
    71   213   214    2
    72   170   172   ar
    73   180   181    1
    74   153   154    1
    75   154   156    1
    76   154   155    1
    77   161   162    1
    78   161   163    1
    79   174   172   ar
    80   174   175    1
    81   181   182    1
    82   181   183    1
    83    13    14    1
    84    15    17   ar
    85    15    14   ar
    86    28    29    1
    87    17    19   ar
    88    14    16   ar
    89    54    52    1
    90   108   106    1
    91    32    29    1
    92    29    30    1
    93   146   145    2
    94    52    51    2
    95    52    53    1
    96    51    50    1
    97   107   105    1
    98   145   144    1
    99    16    18   ar
   100    19    18   ar
   101    30    31    2
   102    65    64    1
   103    50    49    1
   104   106   105    1
   105    84    82   ar
   106   105   102    1
   107    92    91    1
   108    91    90    1
   109    90    89    1
   110   148   147    1
   111   144   147    1
   112   144   143    1
   113    64    61    1
   114   143   134   am
   115    49    48    1
   116    82    81    1
   117    82    83   ar
   118    81    78    1
   119    48    45    1
   120   132   133    1
   121   102   103    1
   122   102   101    1
   123    61    62    1
   124    61    60    1
   125   104   103    2
   126    89    86    1
   127    63    62    2
   128    86    85    1
   129    86    87    1
   130    80    79    2
   131    85    79   am
   132   134   133    1
   133   134   135    2
   134    79    78    1
   135    47    46    1
   136    78    77    1
   137   133   136    1
   138   101    95   am
   139    45    46    1
   140    45    44    1
   141    60    57   am
   142    88    87    2
   143   123   122    2
   144   122   121    1
   145   141   140    1
   146   124   121    1
   147   124   125    1
   148    58    57    2
   149    57    56    1
   150    76    74    1
   151    77    68   am
   152    59    56    1
   153    95    96    2
   154    95    94    1
   155   121   120    1
   156    44    35   am
   157    43    41    1
   158   136   137    1
   159    99    97    1
   160   125   127   ar
   161   125   126   ar
   162   138   137    2
   163   138   139    1
   164   140   139    2
   165   140   142    1
   166    56    55    1
   167   127   129   ar
   168   120   111   am
   169    97    94    1
   170    97    98    1
   171   126   128   ar
   172    68    69    2
   173    68    67    1
   174    74    73    2
   175    74    75    1
   176    94    93    1
   177    41    40    2
   178    41    42    1
   179   109   110    1
   180    35    36    2
   181    35    34    1
   182    40    39    1
   183    73    72    1
   184   129   130   ar
   185    66    67    1
   186   100    98    1
   187   111   112    2
   188   111   110    1
   189   128   130   ar
   190   130   131    1
   191    67    70    1
   192   110   113    1
   193    33    34    1
   194    37    34    1
   195    37    38    1
   196    70    71    1
   197    39    38    1
   198    72    71    1
   199   113   114    1
   200   114   115    1
   201   119   117    1
   202   116   117    2
   203   116   115    1
   204   117   118    1
