@<TRIPOS>MOLECULE
tmp/1jbuA00.pdb
 86 83 0 0 0
SMALL
GASTEIGER

@<TRIPOS>ATOM
      1  N          6.8430   13.4230   -6.3170 N.3    16  VAL16      -0.1231
      2  CA         6.3160   13.2030   -7.6640 C.3    16  VAL16       0.1692
      3  C          4.9460   13.9030   -7.6580 C.2    16  VAL16       0.2592
      4  O          4.0950   13.5750   -6.8350 O.2    16  VAL16      -0.2718
      5  CB         6.1040   11.7090   -7.9550 C.3    16  VAL16       0.0266
      6  CG1        5.2630   11.5450   -9.2210 C.3    16  VAL16       0.0020
      7  CG2        7.4610   10.9940   -8.0910 C.3    16  VAL16       0.0020
      8  N          4.7510   14.8660   -8.5540 N.am   17  ASN17      -0.1974
      9  CA         3.4920   15.6050   -8.6050 C.3    17  ASN17       0.1688
     10  C          3.2230   16.2540   -7.2260 C.2    17  ASN17       0.2292
     11  O          2.0820   16.3830   -6.8090 O.2    17  ASN17      -0.2864
     12  CB         2.3300   14.6530   -8.9780 C.3    17  ASN17       0.1181
     13  CG         2.5060   14.0110  -10.3610 C.2    17  ASN17       0.2629
     14  OD1        3.4210   14.3590  -11.1060 O.2    17  ASN17      -0.2716
     15  ND2        1.6400   13.0690  -10.6960 N.am   17  ASN17      -0.0877
     16  N          3.6840   14.9820   -4.3490 N.3    19  ALA19      -0.1231
     17  CA         3.3950   13.9880   -3.3210 C.3    19  ALA19       0.1694
     18  C          4.6620   13.2270   -2.9220 C.2    19  ALA19       0.2592
     19  O          5.5290   12.9820   -3.7550 O.2    19  ALA19      -0.2718
     20  CB         2.3200   13.0150   -3.8220 C.3    19  ALA19       0.0304
     21  N          4.7540   12.8490   -1.6460 N.am   20  GLN20      -0.1966
     22  CA         5.9110   12.1100   -1.1440 C.3    20  GLN20       0.1733
     23  C          6.0720   10.7460   -1.7970 C.2    20  GLN20       0.2616
     24  O          5.1540    9.9250   -1.7950 O.2    20  GLN20      -0.2715
     25  CB         5.8310   11.9150    0.3710 C.3    20  GLN20       0.0408
     26  CG         5.9200   13.1840    1.1920 C.3    20  GLN20       0.0908
     27  CD         6.1360   12.9010    2.6760 C.2    20  GLN20       0.2608
     28  OE1        6.0860   11.7500    3.1160 O.2    20  GLN20      -0.2717
     29  NE2        6.3800   13.9510    3.4490 N.am   20  GLN20      -0.0878
     30  N          7.2620   10.4980   -2.3370 N.am   21  LEU21      -0.1977
     31  CA         7.5400    9.2210   -2.9740 C.3    21  LEU21       0.1596
     32  C          8.4510    8.3790   -2.1040 C.2    21  LEU21       0.2287
     33  O          8.1270    7.2450   -1.7540 O.2    21  LEU21      -0.2864
     34  CB         8.2310    9.4220   -4.3340 C.3    21  LEU21       0.0297
     35  CG         8.7020    8.1180   -4.9930 C.3    21  LEU21       0.0022
     36  CD1        7.5120    7.3650   -5.6120 C.3    21  LEU21       0.0001
     37  CD2        9.7620    8.4230   -6.0660 C.3    21  LEU21       0.0001
     38  N          6.4670    1.3360   -9.4220 N.3    41  LYS41      -0.1245
     39  CA         5.2060    1.7410  -10.0380 C.3    41  LYS41       0.1561
     40  C          5.2570    3.1750  -10.5130 C.2    41  LYS41       0.2260
     41  O          5.3750    4.0980   -9.7060 O.2    41  LYS41      -0.2867
     42  CB         4.0450    1.5740   -9.0500 C.3    41  LYS41       0.0271
     43  CG         3.7340    0.1320   -8.6660 C.3    41  LYS41       0.0035
     44  CD         4.6430   -0.3790   -7.5530 C.3    41  LYS41       0.0206
     45  CE         4.2510   -1.7910   -7.1050 C.3    41  LYS41       0.1093
     46  NZ         5.0360   -2.2490   -5.9170 N.3    41  LYS41      -0.1314
     47  N          3.2300    5.8620  -13.0640 N.3    43  LYS43      -0.1231
     48  CA         2.0800    6.1530  -13.8960 C.3    43  LYS43       0.1693
     49  C          1.6530    7.5790  -13.6730 C.2    43  LYS43       0.2592
     50  O          1.4460    8.0000  -12.5260 O.2    43  LYS43      -0.2718
     51  CB         0.9270    5.2030  -13.5460 C.3    43  LYS43       0.0285
     52  CG        -0.3200    5.3790  -14.4040 C.3    43  LYS43       0.0035
     53  CD        -1.3700    4.3270  -14.0480 C.3    43  LYS43       0.0206
     54  CE        -2.6890    4.5620  -14.7880 C.3    43  LYS43       0.1093
     55  NZ        -3.4570    5.7250  -14.2480 N.3    43  LYS43      -0.1314
     56  N          1.5900    8.3340  -14.7690 N.am   44  ASN44      -0.1960
     57  CA         1.1670    9.7330  -14.7480 C.3    44  ASN44       0.1819
     58  C          2.0840   10.6590  -13.9300 C.2    44  ASN44       0.2621
     59  O          1.6040   11.5650  -13.2370 O.2    44  ASN44      -0.2715
     60  CB        -0.2920    9.8440  -14.2550 C.3    44  ASN44       0.1195
     61  CG        -1.2820    9.0630  -15.1370 C.2    44  ASN44       0.2630
     62  OD1       -2.2080    8.4260  -14.6400 O.2    44  ASN44      -0.2716
     63  ND2       -1.0810    9.1230  -16.4490 N.am   44  ASN44      -0.0877
     64  N          3.3940   10.4060  -13.9810 N.am   45  TRP45      -0.1974
     65  CA         4.3520   11.2620  -13.2840 C.3    45  TRP45       0.1640
     66  C          4.6020   12.4550  -14.1880 C.2    45  TRP45       0.2290
     67  O          4.8480   12.2950  -15.3810 O.2    45  TRP45      -0.2864
     68  CB         5.6910   10.5480  -13.0350 C.3    45  TRP45       0.0576
     69  CG         5.6670    9.5140  -11.9400 C.ar   45  TRP45       0.0006
     70  CD1        4.5720    8.9070  -11.4040 C.ar   45  TRP45       0.0946
     71  CD2        6.8020    8.9740  -11.2540 C.ar   45  TRP45       0.0152
     72  NE1        4.9520    8.0200  -10.4250 N.ar   45  TRP45      -0.2442
     73  CE2        6.3160    8.0450  -10.3090 C.ar   45  TRP45       0.0810
     74  CE3        8.1870    9.1850  -11.3500 C.ar   45  TRP45       0.0012
     75  CZ2        7.1600    7.3240   -9.4610 C.ar   45  TRP45       0.0191
     76  CZ3        9.0330    8.4620  -10.5060 C.ar   45  TRP45       0.0001
     77  CH2        8.5110    7.5410   -9.5710 C.ar   45  TRP45       0.0015
     78  N          7.0180    6.7050    3.6260 N.3   174  LYS174     -0.1245
     79  CA         7.3310    7.2200    2.3010 C.3   174  LYS174      0.1561
     80  C          8.7400    7.7840    2.2410 C.2   174  LYS174      0.2260
     81  O          9.6250    7.1600    1.6660 O.2   174  LYS174     -0.2867
     82  CB         6.3100    8.2720    1.8800 C.3   174  LYS174      0.0271
     83  CG         4.9470    7.6940    1.5760 C.3   174  LYS174      0.0035
     84  CD         4.0040    8.7750    1.1000 C.3   174  LYS174      0.0206
     85  CE         2.7320    8.1800    0.5360 C.3   174  LYS174      0.1093
     86  NZ         1.8880    9.2320   -0.0850 N.3   174  LYS174     -0.1314
@<TRIPOS>BOND
     1    63    61   am
     2    67    66    2
     3    61    62    2
     4    61    60    1
     5    54    55    1
     6    54    53    1
     7    56    57    1
     8    56    49   am
     9    57    60    1
    10    57    58    1
    11    52    53    1
    12    52    51    1
    13    66    65    1
    14    64    58   am
    15    64    65    1
    16    58    59    2
    17    48    49    1
    18    48    51    1
    19    48    47    1
    20    49    50    2
    21    65    68    1
    22    68    69    1
    23    69    70   ar
    24    69    71   ar
    25    70    72   ar
    26    74    71   ar
    27    74    76   ar
    28    71    73   ar
    29    14    13    2
    30    15    13   am
    31    40    39    1
    32    40    41    2
    33    76    77   ar
    34    72    73   ar
    35    13    12    1
    36    73    75   ar
    37    39    38    1
    38    39    42    1
    39    77    75   ar
    40     6     5    1
    41    42    43    1
    42    12     9    1
    43    43    44    1
    44     9     8    1
    45     9    10    1
    46     8     3   am
    47     7     5    1
    48     5     2    1
    49     2     3    1
    50     2     1    1
    51     3     4    2
    52    44    45    1
    53    10    11    2
    54    45    46    1
    55    37    35    1
    56    36    35    1
    57    35    34    1
    58    16    17    1
    59    34    31    1
    60    20    17    1
    61    19    18    2
    62    17    18    1
    63    31    30    1
    64    31    32    1
    65    18    21   am
    66    30    23   am
    67    32    33    2
    68    23    24    2
    69    23    22    1
    70    21    22    1
    71    22    25    1
    72    86    85    1
    73    25    26    1
    74    85    84    1
    75    84    83    1
    76    26    27    1
    77    83    82    1
    78    81    80    2
    79    82    79    1
    80    80    79    1
    81    79    78    1
    82    27    28    2
    83    27    29   am
