@<TRIPOS>MOLECULE
tmp/1jbvA00.pdb
 189 182 0 0 0
SMALL
GASTEIGER

@<TRIPOS>ATOM
      1  N         -2.5340    6.5090   23.9920 N.3    42  THR42      -0.1203
      2  CA        -1.5840    6.1750   25.0510 C.3    42  THR42       0.1994
      3  C         -1.6930    4.7150   25.4780 C.2    42  THR42       0.2618
      4  O         -0.6750    4.0460   25.6720 O.2    42  THR42      -0.2717
      5  CB        -1.7720    7.0790   26.2840 C.3    42  THR42       0.1784
      6  OG1       -1.5970    8.4540   25.9020 O.3    42  THR42      -0.2211
      7  CG2       -0.7630    6.7060   27.3590 C.3    42  THR42       0.0376
      8  N         -2.9320    4.2440   25.6080 N.am   43  ASN43      -0.1960
      9  CA        -3.2460    2.8660   25.9700 C.3    43  ASN43       0.1819
     10  C         -4.3850    2.3820   25.0840 C.2    43  ASN43       0.2622
     11  O         -5.2720    3.1560   24.7280 O.2    43  ASN43      -0.2715
     12  CB        -3.7380    2.7610   27.4120 C.3    43  ASN43       0.1195
     13  CG        -2.6960    3.2070   28.4290 C.2    43  ASN43       0.2630
     14  OD1       -1.6020    2.6390   28.5070 O.2    43  ASN43      -0.2716
     15  ND2       -3.0370    4.2270   29.2200 N.am   43  ASN43      -0.0877
     16  N         -4.3710    1.1030   24.7320 N.am   44  GLY44      -0.1940
     17  CA        -5.4680    0.5800   23.9340 C.3    44  GLY44       0.2014
     18  C         -5.2860    0.4820   22.4380 C.2    44  GLY44       0.2639
     19  O         -6.1720   -0.0540   21.7490 O.2    44  GLY44      -0.2714
     20  N         -4.1630    0.9630   21.9070 N.am   45  LYS45      -0.1963
     21  CA        -4.0010    0.8790   20.4690 C.3    45  LYS45       0.1728
     22  C         -3.8480   -0.5410   19.9570 C.2    45  LYS45       0.2617
     23  O         -4.4680   -0.8790   18.9550 O.2    45  LYS45      -0.2715
     24  CB        -2.8580    1.7860   19.9520 C.3    45  LYS45       0.0311
     25  CG        -1.4850    1.4850   20.4280 C.3    45  LYS45       0.0038
     26  CD        -0.5230    2.5960   19.9870 C.3    45  LYS45       0.0206
     27  CE         0.7480    2.5560   20.8220 C.3    45  LYS45       0.1093
     28  NZ         0.4300    2.9940   22.2220 N.3    45  LYS45      -0.1314
     29  N         -3.0750   -1.3820   20.6490 N.am   46  GLY46      -0.1940
     30  CA        -2.8880   -2.7550   20.1900 C.3    46  GLY46       0.2014
     31  C         -4.2080   -3.5140   20.2150 C.2    46  GLY46       0.2639
     32  O         -4.5420   -4.2770   19.3080 O.2    46  GLY46      -0.2714
     33  N         -4.9700   -3.2880   21.2730 N.am   47  SER47      -0.1949
     34  CA        -6.2720   -3.9160   21.4480 C.3    47  SER47       0.1924
     35  C         -7.2480   -3.5120   20.3440 C.2    47  SER47       0.2314
     36  O         -7.8790   -4.3640   19.6990 O.2    47  SER47      -0.2863
     37  CB        -6.8470   -3.4950   22.7950 C.3    47  SER47       0.2116
     38  OG        -6.0890   -4.0560   23.8400 O.3    47  SER47      -0.2180
     39  N          3.1600   -3.4980   18.1250 N.3    68  SER68      -0.1203
     40  CA         4.3220   -3.5240   18.9950 C.3    68  SER68       0.2005
     41  C          3.8740   -3.4760   20.4510 C.2    68  SER68       0.2460
     42  O          2.9260   -2.7710   20.7880 O.2    68  SER68      -0.2732
     43  CB         5.2130   -2.3220   18.7080 C.3    68  SER68       0.2103
     44  OG         6.3890   -2.3910   19.4880 O.3    68  SER68      -0.2182
     45  N          4.5490   -4.2330   21.3310 N.am   69  PRO69      -0.2728
     46  CA         5.6810   -5.1090   20.9990 C.3    69  PRO69       0.1401
     47  C          5.2090   -6.5200   20.6530 C.2    69  PRO69       0.2269
     48  O          4.0020   -6.7910   20.5870 O.2    69  PRO69      -0.2865
     49  CB         6.4950   -5.1030   22.2860 C.3    69  PRO69       0.0296
     50  CG         5.4100   -5.1080   23.3250 C.3    69  PRO69       0.0237
     51  CD         4.4620   -4.0290   22.7880 C.3    69  PRO69       0.0939
     52  N          4.9700  -10.6410   21.5180 N.3    71  ILE71      -0.1245
     53  CA         4.8010  -11.3970   22.7490 C.3    71  ILE71       0.1561
     54  C          5.6310  -12.6700   22.7070 C.2    71  ILE71       0.2260
     55  O          6.4840  -12.8680   23.5680 O.2    71  ILE71      -0.2867
     56  CB         3.3180  -11.7510   22.9910 C.3    71  ILE71       0.0252
     57  CG1        2.5030  -10.4580   23.0560 C.3    71  ILE71       0.0019
     58  CG2        3.1540  -12.5500   24.3030 C.3    71  ILE71       0.0019
     59  CD1        3.0190   -9.4710   24.0920 C.3    71  ILE71       0.0001
     60  N         -0.2500    0.3170   13.8280 N.3   138  GLU138     -0.1245
     61  CA        -0.1330    0.8490   15.1790 C.3   138  GLU138      0.1567
     62  C          1.0520    1.8080   15.2610 C.2   138  GLU138      0.2260
     63  O          2.1820    1.4500   14.9060 O.2   138  GLU138     -0.2867
     64  CB         0.0870   -0.2850   16.1770 C.3   138  GLU138      0.0388
     65  CG         0.3900    0.2270   17.5860 C.3   138  GLU138      0.1160
     66  CD         0.4570   -0.8890   18.6210 C.2   138  GLU138      0.3649
     67  OE1        0.2250   -2.0580   18.2670 O.co2 138  GLU138     -0.2457
     68  OE2        0.7410   -0.5860   19.7960 O.co2 138  GLU138     -0.2457
     69  N          4.0880    3.7950   16.7900 N.3   140  GLY140     -0.1225
     70  CA         5.0250    3.3420   17.8080 C.3   140  GLY140      0.1811
     71  C          4.8180    4.1570   19.0920 C.2   140  GLY140      0.2280
     72  O          4.5020    3.6160   20.1470 O.2   140  GLY140     -0.2866
     73  N          3.9430    8.5610   28.2660 N.3   165  HIS165     -0.1241
     74  CA         5.2020    8.8550   27.5530 C.3   165  HIS165      0.1621
     75  C          5.7030   10.2850   27.7070 C.2   165  HIS165      0.2264
     76  O          6.3280   10.8420   26.7960 O.2   165  HIS165     -0.2867
     77  CB         5.0440    8.5820   26.0560 C.3   165  HIS165      0.0745
     78  CG         4.9550    7.1330   25.7080 C.ar  165  HIS165      0.0817
     79  ND1        6.0650    6.3180   25.6200 N.ar  165  HIS165     -0.2268
     80  CD2        3.8890    6.3500   25.4240 C.ar  165  HIS165      0.1154
     81  CE1        5.6840    5.0960   25.2940 C.ar  165  HIS165      0.1986
     82  NE2        4.3690    5.0890   25.1690 N.ar  165  HIS165     -0.2212
     83  N        -12.1360   -1.3210   30.5040 N.3   254  TYR254     -0.1227
     84  CA       -11.6350   -0.4600   29.4360 C.3   254  TYR254      0.1736
     85  C        -11.6710   -1.1140   28.0600 C.2   254  TYR254      0.2595
     86  O        -11.6240   -0.4250   27.0430 O.2   254  TYR254     -0.2718
     87  CB       -10.2090   -0.0140   29.7440 C.3   254  TYR254      0.0548
     88  CG        -9.2920   -1.1650   30.0380 C.ar  254  TYR254     -0.0200
     89  CD1       -8.6460   -1.8510   29.0080 C.ar  254  TYR254     -0.0009
     90  CD2       -9.0980   -1.6000   31.3480 C.ar  254  TYR254     -0.0009
     91  CE1       -7.8220   -2.9520   29.2750 C.ar  254  TYR254      0.0417
     92  CE2       -8.2850   -2.6940   31.6300 C.ar  254  TYR254      0.0417
     93  CZ        -7.6470   -3.3680   30.5900 C.ar  254  TYR254      0.1957
     94  OH        -6.8370   -4.4550   30.8760 O.3   254  TYR254     -0.2866
     95  N        -11.7380   -2.4400   28.0230 N.am  255  GLN255     -0.1979
     96  CA       -11.7920   -3.1370   26.7370 C.3   255  GLN255      0.1601
     97  C        -13.1410   -2.9390   26.0220 C.2   255  GLN255      0.2287
     98  O        -13.2670   -3.2170   24.8310 O.2   255  GLN255     -0.2864
     99  CB       -11.4810   -4.6190   26.9400 C.3   255  GLN255      0.0394
    100  CG       -10.0220   -4.8510   27.2760 C.3   255  GLN255      0.0908
    101  CD        -9.1020   -4.5650   26.1000 C.2   255  GLN255      0.2608
    102  OE1       -9.4990   -3.9250   25.1300 O.2   255  GLN255     -0.2717
    103  NE2       -7.8620   -5.0380   26.1850 N.am  255  GLN255     -0.0878
    104  N        -12.3960   -0.0150   23.9120 N.3   258  ASN258     -0.1240
    105  CA       -11.5210   -0.3950   22.8070 C.3   258  ASN258      0.1653
    106  C        -12.2490   -1.2010   21.7270 C.2   258  ASN258      0.2266
    107  O        -11.9920   -1.0350   20.5350 O.2   258  ASN258     -0.2867
    108  CB       -10.2960   -1.1720   23.3240 C.3   258  ASN258      0.1155
    109  CG        -9.3680   -0.3030   24.1970 C.2   258  ASN258      0.2627
    110  OD1       -9.2100    0.8990   23.9700 O.2   258  ASN258     -0.2716
    111  ND2       -8.7460   -0.9240   25.1910 N.am  258  ASN258     -0.0877
    112  N         -3.3110  -12.4550   23.5080 N.3   292  PRO292     -0.2102
    113  CA        -2.2150  -13.0270   24.2930 C.3   292  PRO292      0.1504
    114  C         -1.5880  -12.0830   25.3170 C.2   292  PRO292      0.2576
    115  O         -1.3860  -10.8980   25.0570 O.2   292  PRO292     -0.2718
    116  CB        -1.2130  -13.4450   23.2190 C.3   292  PRO292      0.0282
    117  CG        -1.3870  -12.3710   22.1700 C.3   292  PRO292      0.0208
    118  CD        -2.9060  -12.2320   22.1020 C.3   292  PRO292      0.0893
    119  N         -1.2760  -12.6320   26.4870 N.am  293  ALA293     -0.1966
    120  CA        -0.6060  -11.8860   27.5500 C.3   293  ALA293      0.1728
    121  C         -1.3820  -10.7410   28.1800 C.2   293  ALA293      0.2616
    122  O         -0.8380  -10.0010   28.9970 O.2   293  ALA293     -0.2715
    123  CB         0.7290  -11.3820   27.0470 C.3   293  ALA293      0.0334
    124  N         -2.6370  -10.5720   27.7950 N.am  294  ARG294     -0.1977
    125  CA        -3.4360   -9.5230   28.4070 C.3   294  ARG294      0.1597
    126  C         -4.6100  -10.1950   29.1120 C.2   294  ARG294      0.2287
    127  O         -5.6420  -10.4810   28.5090 O.2   294  ARG294     -0.2864
    128  CB        -3.9030   -8.4940   27.3660 C.3   294  ARG294      0.0334
    129  CG        -4.6750   -9.0320   26.1870 C.3   294  ARG294      0.0492
    130  CD        -5.4820   -7.8950   25.5570 C.3   294  ARG294      0.2205
    131  NE        -4.6160   -6.8160   25.0880 N.pl3 294  ARG294     -0.0865
    132  CZ        -4.0060   -6.8060   23.9090 C.cat 294  ARG294      0.5346
    133  NH1       -4.1700   -7.8190   23.0630 N.pl3 294  ARG294      0.1354
    134  NH2       -3.2210   -5.7870   23.5840 N.pl3 294  ARG294      0.1354
    135  N         -0.6660  -11.6950   32.7680 N.3   307  ASP307     -0.1225
    136  CA        -1.1690  -10.3900   32.4260 C.3   307  ASP307      0.1805
    137  C         -0.0510   -9.4000   32.2910 C.2   307  ASP307      0.2598
    138  O          0.9400   -9.4570   33.0170 O.2   307  ASP307     -0.2718
    139  CB        -2.1590   -9.9150   33.4910 C.3   307  ASP307      0.1424
    140  CG        -3.0320   -8.7960   33.0010 C.2   307  ASP307      0.3668
    141  OD1       -2.6390   -7.6240   33.1320 O.co2 307  ASP307     -0.2456
    142  OD2       -4.1110   -9.0940   32.4560 O.co2 307  ASP307     -0.2456
    143  N         -0.2170   -8.4840   31.3450 N.am  308  GLY308     -0.1942
    144  CA         0.7830   -7.4630   31.1320 C.3   308  GLY308      0.2014
    145  C          0.3650   -6.1750   31.8050 C.2   308  GLY308      0.2639
    146  O          0.8580   -5.1130   31.4450 O.2   308  GLY308     -0.2714
    147  N         -0.5440   -6.2680   32.7780 N.am  309  ALA309     -0.1963
    148  CA        -1.0290   -5.0890   33.5050 C.3   309  ALA309      0.1728
    149  C          0.1600   -4.2480   33.9300 C.2   309  ALA309      0.2616
    150  O          0.9480   -4.6530   34.7800 O.2   309  ALA309     -0.2715
    151  CB        -1.8560   -5.5070   34.7350 C.3   309  ALA309      0.0334
    152  N          0.2700   -3.0690   33.3280 N.am  310  HIS310     -0.1959
    153  CA         1.3730   -2.1520   33.5730 C.3   310  HIS310      0.1787
    154  C          0.9910   -0.9730   34.4690 C.2   310  HIS310      0.2620
    155  O          1.6530   -0.7090   35.4750 O.2   310  HIS310     -0.2715
    156  CB         1.8890   -1.6370   32.2230 C.3   310  HIS310      0.0785
    157  CG         3.2160   -0.9510   32.3010 C.ar  310  HIS310      0.0821
    158  ND1        4.3150   -1.5240   32.9060 N.ar  310  HIS310     -0.2267
    159  CD2        3.6320    0.2430   31.8160 C.ar  310  HIS310      0.1154
    160  CE1        5.3520   -0.7130   32.7890 C.ar  310  HIS310      0.1986
    161  NE2        4.9650    0.3660   32.1310 N.ar  310  HIS310     -0.2212
    162  N         -0.0770   -0.2700   34.1020 N.am  311  ASN311     -0.1972
    163  CA        -0.5380    0.8930   34.8590 C.3   311  ASN311      0.1688
    164  C         -1.6760    0.5570   35.8270 C.2   311  ASN311      0.2292
    165  O         -2.1890   -0.5640   35.8310 O.2   311  ASN311     -0.2864
    166  CB        -0.9880    1.9950   33.8890 C.3   311  ASN311      0.1181
    167  CG        -1.9510    1.4880   32.8270 C.2   311  ASN311      0.2629
    168  OD1       -2.8790    0.7320   33.1170 O.2   311  ASN311     -0.2716
    169  ND2       -1.7380    1.9160   31.5880 N.am  311  ASN311     -0.0877
    170  N         -4.7760    1.6330   35.8170 N.3   313  ASP313     -0.1225
    171  CA        -5.9950    1.3720   35.0570 C.3   313  ASP313      0.1805
    172  C         -6.0870   -0.1060   34.6910 C.2   313  ASP313      0.2598
    173  O         -7.1520   -0.7190   34.7910 O.2   313  ASP313     -0.2718
    174  CB        -6.0250    2.2200   33.7800 C.3   313  ASP313      0.1424
    175  CG        -6.6360    3.5900   34.0050 C.2   313  ASP313      0.3668
    176  OD1       -7.8390    3.6510   34.3280 O.co2 313  ASP313     -0.2456
    177  OD2       -5.9200    4.6040   33.8630 O.co2 313  ASP313     -0.2456
    178  N         -4.9580   -0.6680   34.2680 N.am  314  GLY314     -0.1957
    179  CA        -4.9210   -2.0670   33.8900 C.3   314  GLY314      0.1869
    180  C         -4.9120   -3.0060   35.0820 C.2   314  GLY314      0.2309
    181  O         -5.6990   -3.9520   35.1250 O.2   314  GLY314     -0.2863
    182  N          4.6600   -6.3470   30.6700 N.3   391  LEU391     -0.1245
    183  CA         4.3890   -7.1150   29.4640 C.3   391  LEU391      0.1561
    184  C          5.5780   -8.0280   29.2100 C.2   391  LEU391      0.2260
    185  O          5.4320   -9.1380   28.7050 O.2   391  LEU391     -0.2867
    186  CB         4.1600   -6.1810   28.2730 C.3   391  LEU391      0.0270
    187  CG         3.7710   -6.8410   26.9430 C.3   391  LEU391      0.0019
    188  CD1        3.1840   -5.7960   26.0160 C.3   391  LEU391      0.0001
    189  CD2        4.9990   -7.4930   26.2840 C.3   391  LEU391      0.0001
@<TRIPOS>BOND
     1    60    61    1
     2    63    62    2
     3    61    62    1
     4    61    64    1
     5    64    65    1
     6    69    70    1
     7    65    66    1
     8    70    71    1
     9    39    40    1
    10    67    66   ar
    11    66    68   ar
    12    43    40    1
    13    43    44    1
    14    23    22    2
    15    40    41    1
    16    71    72    2
    17    32    31    2
    18    36    35    2
    19    24    25    1
    20    24    21    1
    21    22    21    1
    22    22    29   am
    23    26    25    1
    24    26    27    1
    25    30    31    1
    26    30    29    1
    27    31    33   am
    28    35    34    1
    29    41    42    2
    30    41    45   am
    31    21    20    1
    32   107   106    2
    33    48    47    2
    34    47    46    1
    35    27    28    1
    36    46    45    1
    37    46    49    1
    38    33    34    1
    39    45    51    1
    40    34    37    1
    41    52    53    1
    42   106   105    1
    43    19    18    2
    44    20    18   am
    45   118   117    1
    46   118   112    1
    47   117   116    1
    48    49    50    1
    49    18    17    1
    50    54    53    1
    51    54    55    2
    52    53    56    1
    53    51    50    1
    54    37    38    1
    55   105   108    1
    56   105   104    1
    57    56    57    1
    58    56    58    1
    59    57    59    1
    60   133   132    1
    61   116   113    1
    62   108   109    1
    63   112   113    1
    64   134   132    1
    65   132   131    2
    66    17    16    1
    67   110   109    2
    68     1     2    1
    69   109   111   am
    70   113   114    1
    71    11    10    2
    72    16    10   am
    73    98    97    2
    74     2     3    1
    75     2     5    1
    76   115   114    2
    77    10     9    1
    78   131   130    1
    79   102   101    2
    80    82    81   ar
    81    82    80   ar
    82    81    79   ar
    83   114   119   am
    84    80    78   ar
    85     3     8   am
    86     3     4    2
    87   130   129    1
    88     8     9    1
    89    79    78   ar
    90    78    77    1
    91     6     5    1
    92     9    12    1
    93   188   187    1
    94    97    96    1
    95    77    74    1
    96   101   103   am
    97   101   100    1
    98   129   128    1
    99   189   187    1
   100     5     7    1
   101   119   120    1
   102    96    99    1
   103    96    95    1
   104    76    75    2
   105    99   100    1
   106   187   186    1
   107    86    85    2
   108   123   120    1
   109   128   125    1
   110    12    13    1
   111   120   121    1
   112    74    75    1
   113    74    73    1
   114   124   121   am
   115   124   125    1
   116    95    85   am
   117    85    84    1
   118   121   122    2
   119   186   183    1
   120   125   126    1
   121    13    14    2
   122    13    15   am
   123   127   126    2
   124   185   184    2
   125    89    91   ar
   126    89    88   ar
   127   184   183    1
   128    91    93   ar
   129    84    87    1
   130    84    83    1
   131   183   182    1
   132    87    88    1
   133    88    90   ar
   134    93    94    1
   135    93    92   ar
   136   144   143    1
   137   144   145    1
   138   143   137   am
   139    90    92   ar
   140   146   145    2
   141   169   167   am
   142   145   147   am
   143   159   161   ar
   144   159   157   ar
   145   161   160   ar
   146   156   157    1
   147   156   153    1
   148   137   136    1
   149   137   138    2
   150   157   158   ar
   151   136   135    1
   152   136   139    1
   153   142   140   ar
   154   147   148    1
   155   160   158   ar
   156   167   168    2
   157   167   166    1
   158   140   141   ar
   159   140   139    1
   160   152   153    1
   161   152   149   am
   162   148   149    1
   163   148   151    1
   164   153   154    1
   165   174   175    1
   166   174   171    1
   167   177   175   ar
   168   166   163    1
   169   179   178    1
   170   179   180    1
   171   149   150    2
   172   175   176   ar
   173   162   154   am
   174   162   163    1
   175   178   172   am
   176   154   155    2
   177   172   173    2
   178   172   171    1
   179   163   164    1
   180   171   170    1
   181   180   181    2
   182   164   165    2
