@<TRIPOS>MOLECULE
tmp/1jbwA01.pdb
 136 132 0 0 0
SMALL
GASTEIGER

@<TRIPOS>ATOM
      1  N         -1.9080   -3.6960   25.1040 N.3    11  HIS11      -0.1241
      2  CA        -2.1760   -3.1670   23.7490 C.3    11  HIS11       0.1621
      3  C         -3.5230   -2.4550   23.5730 C.2    11  HIS11       0.2264
      4  O         -3.8480   -1.9790   22.4800 O.2    11  HIS11      -0.2867
      5  CB        -2.0650   -4.3020   22.7220 C.3    11  HIS11       0.0745
      6  CG        -0.6770   -4.8460   22.5850 C.ar   11  HIS11       0.0817
      7  ND1       -0.4090   -6.1860   22.3990 N.ar   11  HIS11      -0.2268
      8  CD2        0.5250   -4.2250   22.6220 C.ar   11  HIS11       0.1154
      9  CE1        0.8970   -6.3660   22.3290 C.ar   11  HIS11       0.1986
     10  NE2        1.4870   -5.1930   22.4610 N.ar   11  HIS11      -0.2212
     11  N         -4.2950    6.4020   22.6900 N.3    15  ARG15      -0.1245
     12  CA        -3.2510    7.2540   22.1240 C.3    15  ARG15       0.1563
     13  C         -3.6520    8.6530   22.5570 C.2    15  ARG15       0.2260
     14  O         -4.5400    9.2750   21.9410 O.2    15  ARG15      -0.2867
     15  CB        -3.2730    7.2120   20.5980 C.3    15  ARG15       0.0307
     16  CG        -3.3510    5.8380   19.9780 C.3    15  ARG15       0.0489
     17  CD        -2.0590    5.0350   20.1670 C.3    15  ARG15       0.2205
     18  NE        -2.2080    3.9680   21.1660 N.pl3  15  ARG15      -0.0865
     19  CZ        -1.5220    2.8270   21.1360 C.cat  15  ARG15       0.5346
     20  NH1       -0.6550    2.6210   20.1470 N.pl3  15  ARG15       0.1354
     21  NH2       -1.6820    1.9080   22.0890 N.pl3  15  ARG15       0.1354
     22  N         11.3850   -1.8160   19.0610 N.3    74  PRO74      -0.2102
     23  CA        10.2150   -2.6560   19.3240 C.3    74  PRO74       0.1504
     24  C         10.6120   -4.1100   19.6050 C.2    74  PRO74       0.2575
     25  O         11.7800   -4.4610   19.4620 O.2    74  PRO74      -0.2718
     26  CB         9.3990   -2.4980   18.0370 C.3    74  PRO74       0.0282
     27  CG        10.4490   -2.4220   16.9760 C.3    74  PRO74       0.0208
     28  CD        11.5600   -1.5710   17.6130 C.3    74  PRO74       0.0893
     29  N          9.6700   -4.9440   20.0490 N.am   75  PHE75      -0.1977
     30  CA        10.0170   -6.3430   20.2650 C.3    75  PHE75       0.1639
     31  C         10.0700   -6.9500   18.8660 C.2    75  PHE75       0.2290
     32  O          9.4750   -6.4170   17.9270 O.2    75  PHE75      -0.2864
     33  CB         9.0050   -7.0890   21.1680 C.3    75  PHE75       0.0560
     34  CG         7.6900   -7.4270   20.5130 C.ar   75  PHE75      -0.0200
     35  CD1        7.5850   -8.5000   19.6250 C.ar   75  PHE75      -0.0042
     36  CD2        6.5430   -6.6850   20.8080 C.ar   75  PHE75      -0.0042
     37  CE1        6.3370   -8.8340   19.0320 C.ar   75  PHE75      -0.0003
     38  CE2        5.2990   -7.0020   20.2270 C.ar   75  PHE75      -0.0003
     39  CZ         5.1980   -8.0760   19.3380 C.ar   75  PHE75      -0.0000
     40  N          6.5000   -9.7950   22.8560 N.3    79  PHE79      -0.1241
     41  CA         6.4320   -8.6540   23.7650 C.3    79  PHE79       0.1605
     42  C          7.4540   -8.6050   24.9160 C.2    79  PHE79       0.2264
     43  O          8.1060   -7.5860   25.1350 O.2    79  PHE79      -0.2867
     44  CB         5.0210   -8.5540   24.3520 C.3    79  PHE79       0.0534
     45  CG         4.8170   -7.3260   25.1620 C.ar   79  PHE79      -0.0203
     46  CD1        4.5870   -6.1130   24.5350 C.ar   79  PHE79      -0.0042
     47  CD2        4.9700   -7.3530   26.5520 C.ar   79  PHE79      -0.0042
     48  CE1        4.5170   -4.9400   25.2600 C.ar   79  PHE79      -0.0003
     49  CE2        4.9040   -6.1820   27.2860 C.ar   79  PHE79      -0.0003
     50  CZ         4.6790   -4.9700   26.6330 C.ar   79  PHE79      -0.0000
     51  N         10.8400   -6.6220   25.4690 N.3    82  ARG82      -0.1245
     52  CA        10.9810   -5.2180   25.7950 C.3    82  ARG82       0.1563
     53  C         11.6030   -4.9390   27.1480 C.2    82  ARG82       0.2260
     54  O         12.2420   -3.9140   27.3250 O.2    82  ARG82      -0.2867
     55  CB         9.6430   -4.5180   25.6710 C.3    82  ARG82       0.0307
     56  CG         9.1280   -4.5460   24.2430 C.3    82  ARG82       0.0489
     57  CD         7.8250   -3.8290   24.1450 C.3    82  ARG82       0.2205
     58  NE         8.0260   -2.3890   24.1640 N.pl3  82  ARG82      -0.0865
     59  CZ         7.7990   -1.6010   23.1170 C.cat  82  ARG82       0.5346
     60  NH1        7.3450   -2.1150   21.9660 N.pl3  82  ARG82       0.1354
     61  NH2        8.0790   -0.3150   23.2020 N.pl3  82  ARG82       0.1354
     62  N         -0.8490    6.3850   28.1680 N.3   119  THR119     -0.1203
     63  CA        -0.7140    5.7660   26.8460 C.3   119  THR119      0.1994
     64  C         -0.1010    4.3940   27.0350 C.2   119  THR119      0.2618
     65  O          0.3490    4.0580   28.1230 O.2   119  THR119     -0.2717
     66  CB         0.2220    6.5480   25.9420 C.3   119  THR119      0.1784
     67  OG1        1.5060    6.6560   26.5730 O.3   119  THR119     -0.2211
     68  CG2       -0.3460    7.9320   25.6800 C.3   119  THR119      0.0376
     69  N         -0.0800    3.6080   25.9710 N.am  120  GLU120     -0.1965
     70  CA         0.4920    2.2770   26.0560 C.3   120  GLU120      0.1733
     71  C          1.9800    2.3510   26.4070 C.2   120  GLU120      0.2616
     72  O          2.4460    1.6140   27.2680 O.2   120  GLU120     -0.2715
     73  CB         0.3110    1.5340   24.7360 C.3   120  GLU120      0.0429
     74  CG         0.8190    0.1070   24.7870 C.3   120  GLU120      0.1163
     75  CD         0.6210   -0.6160   23.4780 C.2   120  GLU120      0.3649
     76  OE1       -0.2340   -0.1910   22.6730 O.co2 120  GLU120     -0.2457
     77  OE2        1.3150   -1.6220   23.2590 O.co2 120  GLU120     -0.2457
     78  N          2.7290    3.2360   25.7520 N.am  121  PHE121     -0.1974
     79  CA         4.1480    3.3180   26.0660 C.3   121  PHE121      0.1639
     80  C          4.3660    3.8290   27.4880 C.2   121  PHE121      0.2290
     81  O          5.3240    3.4470   28.1300 O.2   121  PHE121     -0.2864
     82  CB         4.8830    4.2030   25.0700 C.3   121  PHE121      0.0560
     83  CG         6.3950    4.1310   25.1720 C.ar  121  PHE121     -0.0200
     84  CD1        7.0840    2.9700   24.8340 C.ar  121  PHE121     -0.0042
     85  CD2        7.1350    5.2480   25.5610 C.ar  121  PHE121     -0.0042
     86  CE1        8.4830    2.9230   24.8750 C.ar  121  PHE121     -0.0003
     87  CE2        8.5360    5.2170   25.6120 C.ar  121  PHE121     -0.0003
     88  CZ         9.2120    4.0540   25.2670 C.ar  121  PHE121     -0.0000
     89  N         11.1010    7.7850   21.2330 N.3   146  ILE146     -0.1245
     90  CA        11.3000    8.7370   20.1140 C.3   146  ILE146      0.1561
     91  C         11.8010   10.0610   20.7020 C.2   146  ILE146      0.2260
     92  O         11.3970   10.4420   21.8040 O.2   146  ILE146     -0.2867
     93  CB         9.9760    9.0590   19.3200 C.3   146  ILE146      0.0252
     94  CG1        9.7750    8.0780   18.1600 C.3   146  ILE146      0.0019
     95  CG2       10.0480   10.4970   18.7160 C.3   146  ILE146      0.0019
     96  CD1        8.5210    8.3980   17.3130 C.3   146  ILE146      0.0001
     97  N         11.3560   -2.0730   11.6510 N.3   397  LEU397     -0.1231
     98  CA        11.6360   -3.3550   12.2890 C.3   397  LEU397      0.1693
     99  C         10.3520   -4.1800   12.3690 C.2   397  LEU397      0.2592
    100  O         10.4040   -5.4000   12.5370 O.2   397  LEU397     -0.2718
    101  CB        12.2210   -3.1350   13.6790 C.3   397  LEU397      0.0284
    102  CG        13.7170   -2.8030   13.6920 C.3   397  LEU397      0.0019
    103  CD1       14.1700   -2.4840   15.0950 C.3   397  LEU397      0.0001
    104  CD2       14.4960   -3.9700   13.1770 C.3   397  LEU397      0.0001
    105  N          9.2060   -3.5040   12.2380 N.am  398  TYR398     -0.1976
    106  CA         7.8930   -4.1620   12.2410 C.3   398  TYR398      0.1639
    107  C          7.7410   -5.1210   11.0550 C.2   398  TYR398      0.2290
    108  O          7.1360   -6.1870   11.1780 O.2   398  TYR398     -0.2864
    109  CB         6.7850   -3.1180   12.2010 C.3   398  TYR398      0.0560
    110  CG         6.8080   -2.2410   13.4200 C.ar  398  TYR398     -0.0198
    111  CD1        7.1870   -0.8970   13.3430 C.ar  398  TYR398     -0.0009
    112  CD2        6.4970   -2.7680   14.6740 C.ar  398  TYR398     -0.0009
    113  CE1        7.2550   -0.0970   14.5100 C.ar  398  TYR398      0.0417
    114  CE2        6.5620   -1.9810   15.8290 C.ar  398  TYR398      0.0417
    115  CZ         6.9370   -0.6520   15.7360 C.ar  398  TYR398      0.1957
    116  OH         6.9460    0.1100   16.8790 O.3   398  TYR398     -0.2866
    117  N         10.3080   -7.9070   11.7120 N.3   401  SER401     -0.1202
    118  CA         9.7410   -8.7250   12.7620 C.3   401  SER401      0.2020
    119  C          8.6470   -9.6540   12.2200 C.2   401  SER401      0.2618
    120  O          8.6600  -10.8660   12.4960 O.2   401  SER401     -0.2717
    121  CB         9.1890   -7.8300   13.8780 C.3   401  SER401      0.2103
    122  OG         8.2880   -8.5560   14.6970 O.3   401  SER401     -0.2182
    123  N          7.7090   -9.0930   11.4520 N.am  402  ALA402     -0.1979
    124  CA         6.6460   -9.9240   10.8850 C.3   402  ALA402      0.1597
    125  C          7.2430  -11.0330   10.0160 C.2   402  ALA402      0.2287
    126  O          6.7500  -12.1700   10.0160 O.2   402  ALA402     -0.2864
    127  CB         5.6820   -9.0770   10.0780 C.3   402  ALA402      0.0319
    128  N          9.0220  -13.6620   12.4630 N.3   405  GLN405     -0.1245
    129  CA         7.9960  -14.4240   13.1590 C.3   405  GLN405      0.1566
    130  C          7.4220  -15.4880   12.2260 C.2   405  GLN405      0.2260
    131  O          7.2600  -16.6520   12.6040 O.2   405  GLN405     -0.2867
    132  CB         6.8760  -13.4890   13.6040 C.3   405  GLN405      0.0367
    133  CG         7.1850  -12.6650   14.8380 C.3   405  GLN405      0.0905
    134  CD         6.1860  -11.5470   15.0490 C.2   405  GLN405      0.2608
    135  OE1        5.0820  -11.5790   14.5110 O.2   405  GLN405     -0.2717
    136  NE2        6.5640  -10.5550   15.8390 N.am  405  GLN405     -0.0878
@<TRIPOS>BOND
     1   125   126    2
     2   125   124    1
     3   127   124    1
     4   124   123    1
     5   107   108    2
     6   107   106    1
     7   123   119   am
     8    97    98    1
     9   117   118    1
    10   109   106    1
    11   109   110    1
    12   119   120    2
    13   119   118    1
    14   130   131    2
    15   130   129    1
    16   105   106    1
    17   105    99   am
    18    98    99    1
    19    98   101    1
    20    99   100    2
    21   128   129    1
    22   118   121    1
    23   129   132    1
    24   104   102    1
    25   111   110   ar
    26   111   113   ar
    27   110   112   ar
    28   132   133    1
    29   101   102    1
    30   102   103    1
    31   121   122    1
    32   113   115   ar
    33   135   134    2
    34   112   114   ar
    35   133   134    1
    36   134   136   am
    37   115   114   ar
    38   115   116    1
    39    27    28    1
    40    27    26    1
    41    96    94    1
    42    28    22    1
    43    32    31    2
    44    26    23    1
    45    94    93    1
    46    95    93    1
    47    31    30    1
    48    37    39   ar
    49    37    35   ar
    50    22    23    1
    51    93    90    1
    52    23    24    1
    53    39    38   ar
    54    25    24    2
    55    24    29   am
    56    35    34   ar
    57    16    17    1
    58    16    15    1
    59    29    30    1
    60    90    91    1
    61    90    89    1
    62    20    19    1
    63    17    18    1
    64    38    36   ar
    65    30    33    1
    66    34    36   ar
    67    34    33    1
    68    15    12    1
    69    91    92    2
    70    19    18    2
    71    19    21    1
    72    14    13    2
    73    60    59    1
    74    12    13    1
    75    12    11    1
    76     9     7   ar
    77     9    10   ar
    78     7     6   ar
    79    10     8   ar
    80     4     3    2
    81     6     8   ar
    82     6     5    1
    83    76    75   ar
    84     5     2    1
    85    40    41    1
    86    59    61    1
    87    59    58    2
    88    77    75   ar
    89    75    74    1
    90     3     2    1
    91     2     1    1
    92    41    44    1
    93    41    42    1
    94    57    58    1
    95    57    56    1
    96    56    55    1
    97    44    45    1
    98    46    45   ar
    99    46    48   ar
   100    73    74    1
   101    73    70    1
   102    84    86   ar
   103    84    83   ar
   104    86    88   ar
   105    42    43    2
   106    82    83    1
   107    82    79    1
   108    45    47   ar
   109    83    85   ar
   110    48    50   ar
   111    88    87   ar
   112    51    52    1
   113    85    87   ar
   114    55    52    1
   115    68    66    1
   116    78    79    1
   117    78    71   am
   118    52    53    1
   119    66    67    1
   120    66    63    1
   121    69    70    1
   122    69    64   am
   123    70    71    1
   124    79    80    1
   125    71    72    2
   126    47    49   ar
   127    50    49   ar
   128    63    64    1
   129    63    62    1
   130    64    65    2
   131    53    54    2
   132    80    81    2
