@<TRIPOS>MOLECULE
tmp/1jc9A00.pdb
 100 98 0 0 0
SMALL
GASTEIGER

@<TRIPOS>ATOM
      1  N        -15.5030  -29.4370  -16.2520 N.3   142  ARG142     -0.1245
      2  CA       -14.7240  -29.7490  -17.4450 C.3   142  ARG142      0.1563
      3  C        -14.0790  -28.5260  -18.0870 C.2   142  ARG142      0.2260
      4  O        -13.1500  -28.6500  -18.8850 O.2   142  ARG142     -0.2867
      5  CB       -15.5940  -30.4680  -18.4810 C.3   142  ARG142      0.0307
      6  CG       -14.7830  -31.2350  -19.5220 C.3   142  ARG142      0.0489
      7  CD       -15.6620  -32.1000  -20.4220 C.3   142  ARG142      0.2205
      8  NE       -16.3470  -31.3350  -21.4620 N.pl3 142  ARG142     -0.0865
      9  CZ       -17.1850  -31.8690  -22.3480 C.cat 142  ARG142      0.5346
     10  NH1      -17.4470  -33.1700  -22.3190 N.pl3 142  ARG142      0.1354
     11  NH2      -17.7530  -31.1080  -23.2740 N.pl3 142  ARG142      0.1354
     12  N        -10.9270  -27.5110  -29.9160 N.3   158  HIS158     -0.1241
     13  CA       -11.6980  -28.2970  -30.8630 C.3   158  HIS158      0.1621
     14  C        -11.3570  -27.8530  -32.2840 C.2   158  HIS158      0.2264
     15  O        -10.9000  -26.7280  -32.5010 O.2   158  HIS158     -0.2867
     16  CB       -13.1920  -28.1120  -30.5820 C.3   158  HIS158      0.0745
     17  CG       -14.0760  -29.0780  -31.3080 C.ar  158  HIS158      0.0817
     18  ND1      -14.3120  -29.0000  -32.6640 N.ar  158  HIS158     -0.2268
     19  CD2      -14.7870  -30.1410  -30.8630 C.ar  158  HIS158      0.1154
     20  CE1      -15.1320  -29.9730  -33.0220 C.ar  158  HIS158      0.1986
     21  NE2      -15.4350  -30.6790  -31.9470 N.ar  158  HIS158     -0.2212
     22  N        -22.0250  -22.6470  -30.6100 N.3   166  TYR166     -0.1241
     23  CA       -22.8390  -22.5520  -29.4050 C.3   166  TYR166      0.1605
     24  C        -23.2220  -21.1500  -28.9340 C.2   166  TYR166      0.2264
     25  O        -23.7970  -20.9700  -27.8580 O.2   166  TYR166     -0.2867
     26  CB       -22.1820  -23.3950  -28.3170 C.3   166  TYR166      0.0534
     27  CG       -22.0870  -24.8280  -28.7930 C.ar  166  TYR166     -0.0201
     28  CD1      -23.2440  -25.5770  -29.0250 C.ar  166  TYR166     -0.0009
     29  CD2      -20.8600  -25.4050  -29.1150 C.ar  166  TYR166     -0.0009
     30  CE1      -23.1840  -26.8550  -29.5730 C.ar  166  TYR166      0.0417
     31  CE2      -20.7900  -26.6880  -29.6640 C.ar  166  TYR166      0.0417
     32  CZ       -21.9590  -27.4020  -29.8920 C.ar  166  TYR166      0.1957
     33  OH       -21.9080  -28.6600  -30.4520 O.3   166  TYR166     -0.2866
     34  N        -14.5240  -28.7070  -25.7700 N.3   174  ARG174     -0.1231
     35  CA       -14.8300  -29.4880  -26.9710 C.3   174  ARG174      0.1694
     36  C        -16.2680  -30.0260  -26.9960 C.2   174  ARG174      0.2592
     37  O        -16.4560  -31.2170  -27.2350 O.2   174  ARG174     -0.2718
     38  CB       -13.9030  -30.6990  -27.0590 C.3   174  ARG174      0.0321
     39  CG       -12.4550  -30.4360  -27.3890 C.3   174  ARG174      0.0489
     40  CD       -11.6470  -31.6840  -27.0360 C.3   174  ARG174      0.2205
     41  NE       -10.4350  -31.8380  -27.8380 N.pl3 174  ARG174     -0.0865
     42  CZ       -10.4280  -32.1760  -29.1250 C.cat 174  ARG174      0.5346
     43  NH1      -11.5710  -32.3980  -29.7670 N.pl3 174  ARG174      0.1354
     44  NH2       -9.2770  -32.3000  -29.7720 N.pl3 174  ARG174      0.1354
     45  N        -17.2860  -29.1920  -26.7830 N.am  175  CYS175     -0.1956
     46  CA       -17.1490  -27.7670  -26.5360 C.3   175  CYS175      0.1843
     47  C        -17.5820  -27.3520  -25.1280 C.2   175  CYS175      0.2625
     48  O        -16.9300  -26.5100  -24.4990 O.2   175  CYS175     -0.2714
     49  CB       -17.9800  -26.9940  -27.5530 C.3   175  CYS175      0.0997
     50  SG       -17.3060  -26.9360  -29.2440 S.3   175  CYS175     -0.0797
     51  N        -18.6780  -27.9300  -24.6310 N.am  176  HIS176     -0.1973
     52  CA       -19.1590  -27.5570  -23.3000 C.3   176  HIS176      0.1656
     53  C        -20.1460  -28.5170  -22.6540 C.2   176  HIS176      0.2291
     54  O        -20.6870  -29.4180  -23.2980 O.2   176  HIS176     -0.2864
     55  CB       -19.8380  -26.1850  -23.3610 C.3   176  HIS176      0.0771
     56  CG       -21.2170  -26.2240  -23.9440 C.ar  176  HIS176      0.0820
     57  ND1      -22.2870  -26.7970  -23.2870 N.ar  176  HIS176     -0.2267
     58  CD2      -21.6950  -25.7940  -25.1360 C.ar  176  HIS176      0.1154
     59  CE1      -23.3640  -26.7160  -24.0480 C.ar  176  HIS176      0.1986
     60  NE2      -23.0320  -26.1130  -25.1760 N.ar  176  HIS176     -0.2212
     61  N        -29.4190  -27.9930  -31.0900 N.3   192  TYR192     -0.1227
     62  CA       -28.5060  -28.6780  -30.1870 C.3   192  TYR192      0.1736
     63  C        -27.5880  -27.8210  -29.3140 C.2   192  TYR192      0.2595
     64  O        -26.7150  -27.1140  -29.8110 O.2   192  TYR192     -0.2718
     65  CB       -27.6500  -29.6690  -30.9820 C.3   192  TYR192      0.0548
     66  CG       -26.6560  -30.4400  -30.1430 C.ar  192  TYR192     -0.0200
     67  CD1      -27.0820  -31.3750  -29.2040 C.ar  192  TYR192     -0.0009
     68  CD2      -25.2850  -30.2250  -30.2810 C.ar  192  TYR192     -0.0009
     69  CE1      -26.1670  -32.0810  -28.4180 C.ar  192  TYR192      0.0417
     70  CE2      -24.3600  -30.9250  -29.5020 C.ar  192  TYR192      0.0417
     71  CZ       -24.8090  -31.8490  -28.5730 C.ar  192  TYR192      0.1957
     72  OH       -23.8990  -32.5390  -27.7990 O.3   192  TYR192     -0.2866
     73  N        -27.8120  -27.9050  -28.0060 N.am  193  ALA193     -0.1980
     74  CA       -27.0020  -27.2340  -26.9950 C.3   193  ALA193      0.1597
     75  C        -26.5910  -25.7770  -27.2080 C.2   193  ALA193      0.2287
     76  O        -25.5660  -25.3470  -26.6770 O.2   193  ALA193     -0.2864
     77  CB       -25.7540  -28.0740  -26.7470 C.3   193  ALA193      0.0319
     78  N        -25.8620  -29.1290  -18.6050 N.3   199  ARG199     -0.1245
     79  CA       -26.0060  -30.5430  -18.9120 C.3   199  ARG199      0.1563
     80  C        -26.4160  -31.4990  -17.7990 C.2   199  ARG199      0.2260
     81  O        -27.3590  -32.2740  -17.9670 O.2   199  ARG199     -0.2867
     82  CB       -24.7190  -31.0600  -19.5520 C.3   199  ARG199      0.0307
     83  CG       -24.8190  -32.5020  -20.0190 C.3   199  ARG199      0.0489
     84  CD       -23.4820  -33.0150  -20.4910 C.3   199  ARG199      0.2205
     85  NE       -23.5620  -34.4040  -20.9220 N.pl3 199  ARG199     -0.0865
     86  CZ       -22.5630  -35.0660  -21.4980 C.cat 199  ARG199      0.5346
     87  NH1      -21.3980  -34.4620  -21.7150 N.pl3 199  ARG199      0.1354
     88  NH2      -22.7300  -36.3320  -21.8590 N.pl3 199  ARG199      0.1354
     89  N        -29.0040  -31.1720  -22.9750 N.3   204  TYR204     -0.1241
     90  CA       -28.5860  -30.2220  -24.0050 C.3   204  TYR204      0.1605
     91  C        -29.7250  -29.5870  -24.8030 C.2   204  TYR204      0.2264
     92  O        -29.4740  -28.8870  -25.7850 O.2   204  TYR204     -0.2867
     93  CB       -27.6260  -30.8920  -24.9870 C.3   204  TYR204      0.0534
     94  CG       -26.2160  -31.0730  -24.4730 C.ar  204  TYR204     -0.0201
     95  CD1      -25.5120  -30.0000  -23.9240 C.ar  204  TYR204     -0.0009
     96  CD2      -25.5600  -32.3000  -24.5970 C.ar  204  TYR204     -0.0009
     97  CE1      -24.1940  -30.1380  -23.5200 C.ar  204  TYR204      0.0417
     98  CE2      -24.2400  -32.4490  -24.1980 C.ar  204  TYR204      0.0417
     99  CZ       -23.5610  -31.3600  -23.6620 C.ar  204  TYR204      0.1957
    100  OH       -22.2440  -31.4840  -23.2980 O.3   204  TYR204     -0.2866
@<TRIPOS>BOND
     1    20    18   ar
     2    20    21   ar
     3    18    17   ar
     4    15    14    2
     5    14    13    1
     6    21    19   ar
     7    17    19   ar
     8    17    16    1
     9    61    62    1
    10    65    62    1
    11    65    66    1
    12    13    16    1
    13    13    12    1
    14    22    23    1
    15    33    32    1
    16    68    66   ar
    17    68    70   ar
    18    62    63    1
    19    66    67   ar
    20    32    31   ar
    21    32    30   ar
    22    64    63    2
    23    44    42    1
    24    43    42    1
    25    31    29   ar
    26    30    28   ar
    27    70    71   ar
    28    23    24    1
    29    23    26    1
    30    63    73   am
    31    50    49    1
    32    67    69   ar
    33    42    41    2
    34    29    27   ar
    35    28    27   ar
    36    24    25    2
    37    27    26    1
    38    71    69   ar
    39    71    72    1
    40    73    74    1
    41    41    40    1
    42    49    46    1
    43    39    38    1
    44    39    40    1
    45    37    36    2
    46    75    74    1
    47    75    76    2
    48    38    35    1
    49    36    35    1
    50    36    45   am
    51    74    77    1
    52    35    34    1
    53    45    46    1
    54    46    47    1
    55    92    91    2
    56    60    58   ar
    57    60    59   ar
    58    58    56   ar
    59    47    51   am
    60    47    48    2
    61    93    94    1
    62    93    90    1
    63    91    90    1
    64    51    52    1
    65    96    94   ar
    66    96    98   ar
    67    94    95   ar
    68    98    99   ar
    69    59    57   ar
    70    90    89    1
    71    56    55    1
    72    56    57   ar
    73    95    97   ar
    74    99    97   ar
    75    99   100    1
    76    55    52    1
    77    52    53    1
    78    54    53    2
    79    11     9    1
    80     9    10    1
    81     9     8    2
    82    88    86    1
    83    87    86    1
    84    86    85    2
    85     8     7    1
    86    85    84    1
    87    84    83    1
    88     7     6    1
    89    83    82    1
    90    82    79    1
    91     6     5    1
    92    79    78    1
    93    79    80    1
    94     4     3    2
    95     5     2    1
    96     3     2    1
    97    81    80    2
    98     2     1    1
