@<TRIPOS>MOLECULE
tmp/1jclA00.pdb
 151 140 0 0 0
SMALL
GASTEIGER

@<TRIPOS>ATOM
      1  N         34.9160    1.2780   21.8840 N.3    19  THR19      -0.1218
      2  CA        33.7530    1.3660   22.7950 C.3    19  THR19       0.1862
      3  C         33.7450    0.3060   23.8760 C.2    19  THR19       0.2287
      4  O         34.0470   -0.8600   23.6190 O.2    19  THR19      -0.2866
      5  CB        32.4920    1.1860   21.9070 C.3    19  THR19       0.1770
      6  OG1       32.4940    2.2490   20.9490 O.3    19  THR19      -0.2211
      7  CG2       31.2380    1.2890   22.7040 C.3    19  THR19       0.0375
      8  N         30.3930   -0.3890   26.5230 N.3    21  LEU21      -0.1245
      9  CA        29.0910    0.0300   27.0350 C.3    21  LEU21       0.1561
     10  C         28.4010   -1.1960   27.6100 C.2    21  LEU21       0.2260
     11  O         27.4920   -1.7920   27.0300 O.2    21  LEU21      -0.2867
     12  CB        28.2520    0.6410   25.9240 C.3    21  LEU21       0.0270
     13  CG        28.7750    1.9500   25.3500 C.3    21  LEU21       0.0019
     14  CD1       28.0000    2.3260   24.1010 C.3    21  LEU21       0.0001
     15  CD2       28.7100    3.0780   26.3590 C.3    21  LEU21       0.0001
     16  N         34.4100    5.4890   23.3780 N.3    48  CYS48      -0.1235
     17  CA        32.9950    5.7120   23.6850 C.3    48  CYS48       0.1677
     18  C         32.6740    4.8520   24.8980 C.2    48  CYS48       0.2270
     19  O         32.8540    3.6430   24.8830 O.2    48  CYS48      -0.2867
     20  CB        32.1200    5.3790   22.5020 C.3    48  CYS48       0.0956
     21  SG        30.3570    5.7600   22.8250 S.3    48  CYS48      -0.0801
     22  N         27.1600    8.2390   25.3510 N.3    74  VAL74      -0.1245
     23  CA        25.8210    7.9570   24.8480 C.3    74  VAL74       0.1561
     24  C         24.7820    8.5330   25.8060 C.2    74  VAL74       0.2260
     25  O         24.9740    8.5230   27.0310 O.2    74  VAL74      -0.2867
     26  CB        25.5760    6.4560   24.6520 C.3    74  VAL74       0.0252
     27  CG1       26.4510    5.9220   23.5250 C.3    74  VAL74       0.0019
     28  CG2       25.7690    5.6340   25.9100 C.3    74  VAL74       0.0019
     29  N         19.9280    6.2560   25.9730 N.3    77  PHE77      -0.1241
     30  CA        20.4940    5.0250   25.4640 C.3    77  PHE77       0.1605
     31  C         20.2140    3.8510   26.3900 C.2    77  PHE77       0.2264
     32  O         20.4280    3.9950   27.5960 O.2    77  PHE77      -0.2867
     33  CB        22.0040    5.2310   25.3030 C.3    77  PHE77       0.0534
     34  CG        22.7910    4.0610   24.7270 C.ar   77  PHE77      -0.0203
     35  CD1       23.1370    4.0440   23.4000 C.ar   77  PHE77      -0.0042
     36  CD2       23.2150    2.9830   25.5200 C.ar   77  PHE77      -0.0042
     37  CE1       23.8450    3.0020   22.8650 C.ar   77  PHE77      -0.0003
     38  CE2       23.9110    1.9270   24.9770 C.ar   77  PHE77      -0.0003
     39  CZ        24.2080    1.9420   23.6490 C.ar   77  PHE77      -0.0000
     40  N         26.5560   10.7470   21.5550 N.3   103  ASP103     -0.1239
     41  CA        25.8120    9.9240   20.6350 C.3   103  ASP103      0.1674
     42  C         24.4410    9.6550   21.3020 C.2   103  ASP103      0.2266
     43  O         24.3460    8.9050   22.2680 O.2   103  ASP103     -0.2867
     44  CB        26.5100    8.6150   20.3080 C.3   103  ASP103      0.1410
     45  CG        27.8610    8.6430   19.6290 C.2   103  ASP103      0.3668
     46  OD1       28.5330    9.7090   19.6120 O.co2 103  ASP103     -0.2456
     47  OD2       28.2440    7.5650   19.1010 O.co2 103  ASP103     -0.2456
     48  N         21.8410    8.2890   16.7690 N.3   140  ILE140     -0.1245
     49  CA        21.6410    6.8690   16.5220 C.3   140  ILE140      0.1561
     50  C         20.2090    6.6210   16.1240 C.2   140  ILE140      0.2260
     51  O         19.2910    6.8440   16.9310 O.2   140  ILE140     -0.2867
     52  CB        21.9830    6.0410   17.7650 C.3   140  ILE140      0.0252
     53  CG1       23.3840    6.3120   18.2920 C.3   140  ILE140      0.0019
     54  CG2       21.7370    4.6000   17.4830 C.3   140  ILE140      0.0019
     55  CD1       23.6400    5.8480   19.7240 C.3   140  ILE140      0.0001
     56  N         24.2870    7.7370   12.9160 N.3   168  LYS168     -0.1245
     57  CA        24.8670    6.4620   13.3540 C.3   168  LYS168      0.1561
     58  C         23.7850    5.3960   13.2050 C.2   168  LYS168      0.2260
     59  O         22.6170    5.5990   13.5090 O.2   168  LYS168     -0.2867
     60  CB        25.3470    6.5810   14.8110 C.3   168  LYS168      0.0271
     61  CG        25.7550    5.2980   15.4950 C.3   168  LYS168      0.0035
     62  CD        26.4800    5.5780   16.8170 C.3   168  LYS168      0.0206
     63  CE        26.4920    4.3890   17.7430 C.3   168  LYS168      0.1093
     64  NZ        27.4100    4.6360   18.8900 N.3   168  LYS168     -0.1314
     65  N         23.1440    2.4000   14.7200 N.3   170  SER170     -0.1202
     66  CA        22.6470    1.4240   15.6780 C.3   170  SER170      0.2020
     67  C         23.2730    1.6070   17.0600 C.2   170  SER170      0.2619
     68  O         24.3600    2.1360   17.2180 O.2   170  SER170     -0.2717
     69  CB        23.0100    0.0110   15.2350 C.3   170  SER170      0.2103
     70  OG        22.7270   -0.2270   13.8550 O.3   170  SER170     -0.2182
     71  N         22.5580    1.0760   18.0820 N.am  171  THR171     -0.1938
     72  CA        23.0870    1.0590   19.4200 C.3   171  THR171      0.2028
     73  C         24.0380   -0.0800   19.7150 C.2   171  THR171      0.2643
     74  O         24.7470   -0.0380   20.7060 O.2   171  THR171     -0.2714
     75  CB        21.9470    0.9850   20.4600 C.3   171  THR171      0.1808
     76  OG1       21.1920   -0.1840   20.2610 O.3   171  THR171     -0.2208
     77  CG2       21.0180    2.1600   20.4460 C.3   171  THR171      0.0379
     78  N         23.9910   -1.1440   18.9070 N.am  172  GLY172     -0.1939
     79  CA        24.6780   -2.3760   19.2270 C.3   172  GLY172      0.2014
     80  C         23.9670   -3.2310   20.2290 C.2   172  GLY172      0.2638
     81  O         24.4160   -4.3030   20.6110 O.2   172  GLY172     -0.2714
     82  N         22.8340   -2.9050   20.6760 N.am  173  LYS173     -0.1977
     83  CA        22.0470   -3.4460   21.7880 C.3   173  LYS173      0.1596
     84  C         20.7290   -4.0630   21.3390 C.2   173  LYS173      0.2287
     85  O         19.9710   -4.5320   22.2150 O.2   173  LYS173     -0.2864
     86  CB        21.8260   -2.4590   22.9090 C.3   173  LYS173      0.0298
     87  CG        23.0750   -1.7830   23.4330 C.3   173  LYS173      0.0038
     88  CD        24.1080   -2.7930   23.9250 C.3   173  LYS173      0.0206
     89  CE        25.2730   -2.0740   24.5680 C.3   173  LYS173      0.1093
     90  NZ        26.3860   -3.0030   24.8200 N.3   173  LYS173     -0.1314
     91  N         28.4230    6.9610   10.8030 N.3   202  LYS202     -0.1245
     92  CA        29.0270    6.0150   11.7590 C.3   202  LYS202      0.1561
     93  C         28.2660    4.7070   11.7230 C.2   202  LYS202      0.2260
     94  O         27.2130    4.5890   12.3600 O.2   202  LYS202     -0.2867
     95  CB        29.0230    6.6260   13.1370 C.3   202  LYS202      0.0271
     96  CG        29.6160    5.7180   14.2390 C.3   202  LYS202      0.0035
     97  CD        29.8330    6.4420   15.5410 C.3   202  LYS202      0.0206
     98  CE        30.1950    5.4710   16.6410 C.3   202  LYS202      0.1093
     99  NZ        30.3690    6.0650   17.9930 N.3   202  LYS202     -0.1314
    100  N         27.7730    1.1020   13.2650 N.3   204  ALA204     -0.1231
    101  CA        27.9830    0.6150   14.6100 C.3   204  ALA204      0.1694
    102  C         27.1670   -0.6050   14.8730 C.2   204  ALA204      0.2593
    103  O         26.0360   -0.7380   14.3960 O.2   204  ALA204     -0.2718
    104  CB        27.6160    1.6920   15.6230 C.3   204  ALA204      0.0304
    105  N         27.7380   -1.4560   15.7000 N.am  205  GLY205     -0.1942
    106  CA        27.0890   -2.6730   16.1530 C.3   205  GLY205      0.2014
    107  C         27.3980   -3.8190   15.2330 C.2   205  GLY205      0.2639
    108  O         27.0370   -3.8040   14.0530 O.2   205  GLY205     -0.2714
    109  N         28.0610   -4.8410   15.7470 N.am  206  GLY206     -0.1939
    110  CA        28.4140   -6.0230   15.0100 C.3   206  GLY206      0.2014
    111  C         29.5150   -5.9110   13.9760 C.2   206  GLY206      0.2639
    112  O         29.7000   -6.8580   13.1980 O.2   206  GLY206     -0.2714
    113  N         30.2410   -4.7920   13.9710 N.am  207  VAL207     -0.1963
    114  CA        31.3640   -4.6340   13.0360 C.3   207  VAL207      0.1727
    115  C         32.5780   -5.2110   13.7630 C.2   207  VAL207      0.2616
    116  O         33.1380   -4.5850   14.6510 O.2   207  VAL207     -0.2715
    117  CB        31.5820   -3.2020   12.6410 C.3   207  VAL207      0.0290
    118  CG1       32.6450   -3.1080   11.5430 C.3   207  VAL207      0.0023
    119  CG2       30.2460   -2.5470   12.1940 C.3   207  VAL207      0.0023
    120  N         32.9390   -6.4470   13.4240 N.am  208  ARG208     -0.1977
    121  CA        33.8470   -7.2500   14.2070 C.3   208  ARG208      0.1597
    122  C         35.1810   -7.5820   13.5350 C.2   208  ARG208      0.2287
    123  O         36.1870   -7.8290   14.2240 O.2   208  ARG208     -0.2864
    124  CB        33.1880   -8.5560   14.6710 C.3   208  ARG208      0.0334
    125  CG        32.0120   -8.2840   15.5910 C.3   208  ARG208      0.0492
    126  CD        31.4910   -9.5050   16.2880 C.3   208  ARG208      0.2205
    127  NE        30.1270   -9.4260   16.6790 N.pl3 208  ARG208     -0.0865
    128  CZ        29.0560  -10.1650   16.3880 C.cat 208  ARG208      0.5346
    129  NH1       29.0740  -11.2230   15.5790 N.pl3 208  ARG208      0.1354
    130  NH2       27.8850   -9.8280   16.9310 N.pl3 208  ARG208      0.1354
    131  N         31.8230    2.5700   15.1290 N.3   237  GLY237     -0.1210
    132  CA        31.4700    2.2360   16.4940 C.3   237  GLY237      0.1956
    133  C         31.7110    0.7850   16.7470 C.2   237  GLY237      0.2612
    134  O         31.0320   -0.0370   16.1480 O.2   237  GLY237     -0.2717
    135  N         32.7060    0.4420   17.5810 N.am  238  ALA238     -0.1965
    136  CA        33.0690   -0.9480   17.7400 C.3   238  ALA238      0.1728
    137  C         33.7590   -1.1880   19.0510 C.2   238  ALA238      0.2617
    138  O         34.5960   -0.4460   19.5070 O.2   238  ALA238     -0.2715
    139  CB        33.9570   -1.4020   16.5950 C.3   238  ALA238      0.0334
    140  N         33.2610   -2.2380   19.7520 N.am  239  SER239     -0.1936
    141  CA        33.8420   -2.7580   20.9970 C.3   239  SER239      0.2055
    142  C         34.8130   -3.8430   20.7240 C.2   239  SER239      0.2643
    143  O         35.6400   -4.1620   21.6130 O.2   239  SER239     -0.2714
    144  CB        32.7210   -3.2580   21.9210 C.3   239  SER239      0.2130
    145  OG        32.1310   -4.4540   21.4000 O.3   239  SER239     -0.2179
    146  N         34.7190   -4.5700   19.5990 N.am  240  SER240     -0.1949
    147  CA        35.4330   -5.7830   19.3690 C.3   240  SER240      0.1924
    148  C         35.9500   -5.9740   17.9460 C.2   240  SER240      0.2314
    149  O         35.9110   -7.0900   17.3930 O.2   240  SER240     -0.2863
    150  CB        34.4450   -6.9590   19.6560 C.3   240  SER240      0.2116
    151  OG        33.7060   -6.7470   20.8500 O.3   240  SER240     -0.2180
@<TRIPOS>BOND
     1    91    92    1
     2   118   117    1
     3    93    92    1
     4    93    94    2
     5    92    95    1
     6   119   117    1
     7   117   114    1
     8    56    57    1
     9   114   115    1
    10   114   113    1
    11    95    96    1
    12   112   111    2
    13    58    57    1
    14    58    59    2
    15   100   101    1
    16    57    60    1
    17   120   115   am
    18   120   121    1
    19   122   121    1
    20   122   123    2
    21   115   116    2
    22    70    69    1
    23   113   111   am
    24   111   110    1
    25   108   107    2
    26   121   124    1
    27    96    97    1
    28   103   102    2
    29   101   102    1
    30   101   104    1
    31   124   125    1
    32    65    66    1
    33    60    61    1
    34   102   105   am
    35   110   109    1
    36   131   132    1
    37   107   109   am
    38   107   106    1
    39    69    66    1
    40    61    62    1
    41    97    98    1
    42   129   128    1
    43   125   126    1
    44    66    67    1
    45   105   106    1
    46    50    49    1
    47    50    51    2
    48   134   133    2
    49   126   127    1
    50   128   127    2
    51   128   130    1
    52   132   133    1
    53    49    48    1
    54    49    52    1
    55   139   136    1
    56    98    99    1
    57   133   135   am
    58    62    63    1
    59    67    68    2
    60    67    71   am
    61   149   148    2
    62    54    52    1
    63   135   136    1
    64   136   137    1
    65    63    64    1
    66    52    53    1
    67   148   147    1
    68    71    72    1
    69    53    55    1
    70    78    79    1
    71    78    73   am
    72   137   138    2
    73   137   140   am
    74    47    45   ar
    75    79    80    1
    76   147   146    1
    77   147   150    1
    78    72    73    1
    79    72    75    1
    80   146   142   am
    81    46    45   ar
    82    45    44    1
    83   150   151    1
    84    73    74    2
    85   140   141    1
    86    80    81    2
    87    80    82   am
    88    76    75    1
    89    44    41    1
    90    77    75    1
    91    41    42    1
    92    41    40    1
    93    82    83    1
    94   142   141    1
    95   142   143    2
    96     6     5    1
    97   141   144    1
    98    42    43    2
    99    84    83    1
   100    84    85    2
   101   145   144    1
   102    83    86    1
   103     1     2    1
   104     5     7    1
   105     5     2    1
   106    20    21    1
   107    20    17    1
   108     2     3    1
   109    37    35   ar
   110    37    39   ar
   111    86    87    1
   112    16    17    1
   113    35    34   ar
   114    87    88    1
   115    27    26    1
   116     4     3    2
   117    39    38   ar
   118    17    18    1
   119    88    89    1
   120    14    13    1
   121    89    90    1
   122    26    23    1
   123    26    28    1
   124    34    33    1
   125    34    36   ar
   126    23    22    1
   127    23    24    1
   128    19    18    2
   129    38    36   ar
   130    33    30    1
   131    13    12    1
   132    13    15    1
   133    30    29    1
   134    30    31    1
   135    24    25    2
   136    12     9    1
   137    31    32    2
   138     8     9    1
   139    11    10    2
   140     9    10    1
