@<TRIPOS>MOLECULE
tmp/1jcqB02.pdb
 173 170 0 0 0
SMALL
GASTEIGER

@<TRIPOS>ATOM
      1  N         13.1050  143.8880   -4.2850 N.3    82  LEU82      -0.1245
      2  CA        12.3110  142.7290   -4.6740 C.3    82  LEU82       0.1561
      3  C         11.2820  143.0730   -5.7480 C.2    82  LEU82       0.2260
      4  O         10.2780  142.3790   -5.9130 O.2    82  LEU82      -0.2867
      5  CB        11.6400  142.1050   -3.4520 C.3    82  LEU82       0.0270
      6  CG        12.6100  141.4810   -2.4460 C.3    82  LEU82       0.0019
      7  CD1       11.8450  140.9860   -1.2560 C.3    82  LEU82       0.0001
      8  CD2       13.3690  140.3260   -3.0860 C.3    82  LEU82       0.0001
      9  N         11.5800  142.6820   -8.8880 N.3    84  ALA84      -0.1231
     10  CA        11.5760  141.6590   -9.9240 C.3    84  ALA84       0.1694
     11  C         11.2110  140.3030   -9.2950 C.2    84  ALA84       0.2592
     12  O         11.4160  139.2540   -9.9040 O.2    84  ALA84      -0.2718
     13  CB        12.9380  141.5850  -10.5890 C.3    84  ALA84       0.0304
     14  N         10.6280  140.3340   -8.0960 N.am   85  SER85      -0.1952
     15  CA        10.2600  139.1140   -7.3740 C.3    85  SER85       0.1924
     16  C          8.8620  139.1760   -6.7680 C.2    85  SER85       0.2314
     17  O          8.5630  138.4470   -5.8220 O.2    85  SER85      -0.2863
     18  CB        11.2400  138.8800   -6.2220 C.3    85  SER85       0.2116
     19  OG        12.5320  139.3680   -6.5250 O.3    85  SER85      -0.2180
     20  N          6.8450  136.1460   -5.8840 N.3    88  TRP88      -0.1241
     21  CA         7.4270  135.4570   -4.7380 C.3    88  TRP88       0.1605
     22  C          6.8070  136.0050   -3.4650 C.2    88  TRP88       0.2264
     23  O          6.5410  135.2500   -2.5350 O.2    88  TRP88      -0.2867
     24  CB         8.9430  135.6340   -4.6700 C.3    88  TRP88       0.0550
     25  CG         9.7000  134.6500   -5.5110 C.ar   88  TRP88       0.0003
     26  CD1       10.3760  134.9120   -6.6650 C.ar   88  TRP88       0.0946
     27  CD2        9.8570  133.2320   -5.2660 C.ar   88  TRP88       0.0152
     28  NE1       10.9420  133.7590   -7.1550 N.ar   88  TRP88      -0.2442
     29  CE2       10.6410  132.7130   -6.3230 C.ar   88  TRP88       0.0810
     30  CE3        9.4100  132.3600   -4.2590 C.ar   88  TRP88       0.0012
     31  CZ2       10.9890  131.3490   -6.4090 C.ar   88  TRP88       0.0191
     32  CZ3        9.7580  131.0020   -4.3440 C.ar   88  TRP88       0.0001
     33  CH2       10.5410  130.5140   -5.4150 C.ar   88  TRP88       0.0015
     34  N          5.1970  133.5930   -0.8260 N.3    92  TRP92      -0.1241
     35  CA         5.6980  133.5510    0.5460 C.3    92  TRP92       0.1605
     36  C          4.5740  133.8490    1.5480 C.2    92  TRP92       0.2264
     37  O          4.3450  133.0810    2.4900 O.2    92  TRP92      -0.2867
     38  CB         6.8410  134.5540    0.7340 C.3    92  TRP92       0.0550
     39  CG         8.0890  134.2330   -0.0230 C.ar   92  TRP92       0.0003
     40  CD1        8.5600  132.9920   -0.3440 C.ar   92  TRP92       0.0946
     41  CD2        9.0510  135.1700   -0.5320 C.ar   92  TRP92       0.0152
     42  NE1        9.7560  133.0960   -1.0140 N.ar   92  TRP92      -0.2442
     43  CE2       10.0830  134.4190   -1.1420 C.ar   92  TRP92       0.0810
     44  CE3        9.1470  136.5670   -0.5240 C.ar   92  TRP92       0.0012
     45  CZ2       11.1940  135.0240   -1.7430 C.ar   92  TRP92       0.0191
     46  CZ3       10.2630  137.1690   -1.1260 C.ar   92  TRP92       0.0001
     47  CH2       11.2670  136.3930   -1.7230 C.ar   92  TRP92       0.0015
     48  N          8.7150  138.8920  -13.0870 N.3   128  GLY128     -0.1225
     49  CA         8.8130  139.3150  -11.7000 C.3   128  GLY128      0.1811
     50  C          7.9180  140.4840  -11.3340 C.2   128  GLY128      0.2280
     51  O          7.8770  140.9050  -10.1740 O.2   128  GLY128     -0.2866
     52  N         10.4510  134.3600  -16.1070 N.3   135  HIS135     -0.1241
     53  CA        11.6280  133.8270  -15.4480 C.3   135  HIS135      0.1621
     54  C         11.0670  132.6410  -14.6520 C.2   135  HIS135      0.2264
     55  O         10.0360  132.7660  -13.9840 O.2   135  HIS135     -0.2867
     56  CB        12.1950  134.9210  -14.5440 C.3   135  HIS135      0.0745
     57  CG        13.4850  134.5750  -13.8640 C.ar  135  HIS135      0.0817
     58  ND1       13.5830  133.5960  -12.8990 N.ar  135  HIS135     -0.2268
     59  CD2       14.7020  135.1710  -13.9140 C.ar  135  HIS135      0.1154
     60  CE1       14.7970  133.6140  -12.3760 C.ar  135  HIS135      0.1986
     61  NE2       15.4960  134.5600  -12.9760 N.ar  135  HIS135     -0.2212
     62  N         11.7590  131.1940  -11.8720 N.3   137  ALA137     -0.1231
     63  CA        11.5020  131.3450  -10.4450 C.3   137  ALA137      0.1679
     64  C         10.1630  132.0460  -10.1750 C.2   137  ALA137      0.2434
     65  O          9.3210  131.4960   -9.4580 O.2   137  ALA137     -0.2733
     66  CB        12.6750  132.0170   -9.7340 C.3   137  ALA137      0.0304
     67  N          9.9460  133.2660  -10.7160 N.am  138  PRO138     -0.2729
     68  CA         8.6250  133.8220  -10.3980 C.3   138  PRO138      0.1401
     69  C          7.4640  133.0280  -11.0200 C.2   138  PRO138      0.2269
     70  O          6.3430  133.0980  -10.5300 O.2   138  PRO138     -0.2865
     71  CB         8.7200  135.2780  -10.8950 C.3   138  PRO138      0.0296
     72  CG         9.8850  135.3060  -11.7970 C.3   138  PRO138      0.0237
     73  CD        10.8420  134.3270  -11.2120 C.3   138  PRO138      0.0939
     74  N         20.9950  132.6020  -16.8410 N.3   184  GLU184     -0.1245
     75  CA        21.8600  131.5820  -16.2730 C.3   184  GLU184      0.1567
     76  C         21.1980  130.2030  -16.1850 C.2   184  GLU184      0.2260
     77  O         19.9630  130.0890  -16.2180 O.2   184  GLU184     -0.2867
     78  CB        22.3420  132.0320  -14.8810 C.3   184  GLU184      0.0388
     79  CG        21.3280  131.9060  -13.7290 C.3   184  GLU184      0.1160
     80  CD        20.3370  133.0770  -13.5980 C.2   184  GLU184      0.3649
     81  OE1       20.1350  133.8470  -14.5520 O.co2 184  GLU184     -0.2457
     82  OE2       19.7290  133.2210  -12.5170 O.co2 184  GLU184     -0.2457
     83  N         18.0960  125.0420  -10.1220 N.3   188  ARG188     -0.1245
     84  CA        16.8300  125.6760   -9.7320 C.3   188  ARG188      0.1563
     85  C         15.8350  125.5880  -10.8910 C.2   188  ARG188      0.2260
     86  O         14.6590  125.2940  -10.6770 O.2   188  ARG188     -0.2867
     87  CB        17.0160  127.1630   -9.3850 C.3   188  ARG188      0.0307
     88  CG        17.7010  127.4620   -8.0800 C.3   188  ARG188      0.0489
     89  CD        17.9160  128.9670   -7.9360 C.3   188  ARG188      0.2205
     90  NE        18.7650  129.4710   -9.0200 N.pl3 188  ARG188     -0.0865
     91  CZ        18.6470  130.6590   -9.6110 C.cat 188  ARG188      0.5346
     92  NH1       17.7170  131.5370   -9.2450 N.pl3 188  ARG188      0.1354
     93  NH2       19.4430  130.9420  -10.6330 N.pl3 188  ARG188      0.1354
     94  N         24.8730  122.1410   -1.8800 N.3   234  HIS234     -0.1241
     95  CA        24.1340  123.1540   -1.1440 C.3   234  HIS234      0.1621
     96  C         22.6640  122.7800   -1.0000 C.2   234  HIS234      0.2264
     97  O         22.0080  122.4230   -1.9810 O.2   234  HIS234     -0.2867
     98  CB        24.2590  124.5000   -1.8530 C.3   234  HIS234      0.0745
     99  CG        23.9230  125.6720   -0.9860 C.ar  234  HIS234      0.0817
    100  ND1       22.6240  126.0140   -0.6680 N.ar  234  HIS234     -0.2268
    101  CD2       24.7150  126.5830   -0.3700 C.ar  234  HIS234      0.1154
    102  CE1       22.6320  127.0850    0.1080 C.ar  234  HIS234      0.1986
    103  NE2       23.8880  127.4480    0.3030 N.ar  234  HIS234     -0.2212
    104  N         20.7570  128.6140    9.4960 N.3   283  ASP283     -0.1239
    105  CA        19.8400  129.5980    8.9490 C.3   283  ASP283      0.1674
    106  C         18.4750  128.9340    8.9190 C.2   283  ASP283      0.2266
    107  O         18.3310  127.8130    8.4120 O.2   283  ASP283     -0.2867
    108  CB        20.2930  130.0020    7.5380 C.3   283  ASP283      0.1410
    109  CG        19.3340  130.9660    6.8430 C.2   283  ASP283      0.3668
    110  OD1       18.2090  131.1790    7.3260 O.co2 283  ASP283     -0.2456
    111  OD2       19.7100  131.5210    5.7900 O.co2 283  ASP283     -0.2456
    112  N         15.8050  129.3740    7.0580 N.3   285  CYS285     -0.1221
    113  CA        15.1950  128.9830    5.7840 C.3   285  CYS285      0.1808
    114  C         15.5930  127.5620    5.3790 C.2   285  CYS285      0.2601
    115  O         14.8350  126.8850    4.6730 O.2   285  CYS285     -0.2717
    116  CB        15.4930  129.9970    4.6690 C.3   285  CYS285      0.0970
    117  SG        17.2060  130.0750    4.0770 S.3   285  CYS285     -0.0800
    118  N         16.7470  127.0870    5.8690 N.am  286  TYR286     -0.1976
    119  CA        17.2000  125.7230    5.5650 C.3   286  TYR286      0.1639
    120  C         16.3480  124.7190    6.3260 C.2   286  TYR286      0.2290
    121  O         16.4300  123.5200    6.0790 O.2   286  TYR286     -0.2864
    122  CB        18.7000  125.5230    5.8320 C.3   286  TYR286      0.0560
    123  CG        19.5520  126.3770    4.9230 C.ar  286  TYR286     -0.0198
    124  CD1       20.5870  127.1630    5.4320 C.ar  286  TYR286     -0.0009
    125  CD2       19.2590  126.4760    3.5560 C.ar  286  TYR286     -0.0009
    126  CE1       21.3070  128.0390    4.6070 C.ar  286  TYR286      0.0417
    127  CE2       19.9620  127.3440    2.7290 C.ar  286  TYR286      0.0417
    128  CZ        20.9870  128.1260    3.2580 C.ar  286  TYR286      0.1957
    129  OH        21.6730  128.9980    2.4310 O.3   286  TYR286     -0.2866
    130  N         14.6000  123.8750    3.0810 N.3   289  TRP289     -0.1241
    131  CA        15.4450  123.3310    2.0300 C.3   289  TRP289      0.1605
    132  C         16.1820  122.0530    2.4160 C.2   289  TRP289      0.2264
    133  O         16.2560  121.1200    1.6170 O.2   289  TRP289     -0.2867
    134  CB        16.4360  124.3820    1.5200 C.3   289  TRP289      0.0550
    135  CG        15.8010  125.6680    1.0830 C.ar  289  TRP289      0.0003
    136  CD1       15.9810  126.8950    1.6510 C.ar  289  TRP289      0.0946
    137  CD2       14.8890  125.8630   -0.0080 C.ar  289  TRP289      0.0152
    138  NE1       15.2380  127.8440    0.9860 N.ar  289  TRP289     -0.2442
    139  CE2       14.5590  127.2380   -0.0380 C.ar  289  TRP289      0.0810
    140  CE3       14.3160  125.0100   -0.9650 C.ar  289  TRP289      0.0012
    141  CZ2       13.6810  127.7850   -0.9850 C.ar  289  TRP289      0.0191
    142  CZ3       13.4330  125.5540   -1.9150 C.ar  289  TRP289      0.0001
    143  CH2       13.1290  126.9290   -1.9130 C.ar  289  TRP289      0.0015
    144  N         16.3430  134.4250    9.7510 N.3   338  ASP338     -0.1239
    145  CA        17.4850  133.5410    9.5310 C.3   338  ASP338      0.1674
    146  C         18.0390  133.0720   10.8760 C.2   338  ASP338      0.2266
    147  O         18.0410  131.8900   11.1690 O.2   338  ASP338     -0.2867
    148  CB        18.5190  134.3230    8.6920 C.3   338  ASP338      0.1410
    149  CG        19.9490  133.7870    8.7790 C.2   338  ASP338      0.3668
    150  OD1       20.2460  132.7680    9.4310 O.co2 338  ASP338     -0.2456
    151  OD2       20.8170  134.4290    8.1660 O.co2 338  ASP338     -0.2456
    152  N         10.4930  135.9210    3.0090 N.3   347  TYR347     -0.1227
    153  CA        11.1100  134.6860    2.5510 C.3   347  TYR347      0.1736
    154  C         11.3490  133.7410    3.7440 C.2   347  TYR347      0.2595
    155  O         10.9500  132.5750    3.7180 O.2   347  TYR347     -0.2718
    156  CB        12.4190  135.0050    1.7970 C.3   347  TYR347      0.0548
    157  CG        13.3720  133.8310    1.5930 C.ar  347  TYR347     -0.0200
    158  CD1       13.2850  133.0080    0.4620 C.ar  347  TYR347     -0.0009
    159  CD2       14.3650  133.5520    2.5360 C.ar  347  TYR347     -0.0009
    160  CE1       14.1730  131.9330    0.2810 C.ar  347  TYR347      0.0417
    161  CE2       15.2450  132.4880    2.3710 C.ar  347  TYR347      0.0417
    162  CZ        15.1490  131.6790    1.2470 C.ar  347  TYR347      0.1957
    163  OH        16.0110  130.6060    1.1350 O.3   347  TYR347     -0.2866
    164  N         11.9640  134.2620    4.8020 N.am  348  HIS348     -0.1975
    165  CA        12.2410  133.4530    5.9840 C.3   348  HIS348      0.1656
    166  C         10.9760  133.0970    6.7410 C.2   348  HIS348      0.2291
    167  O         10.8670  132.0040    7.2980 O.2   348  HIS348     -0.2864
    168  CB        13.2460  134.1380    6.9010 C.3   348  HIS348      0.0771
    169  CG        14.6490  134.0950    6.3830 C.ar  348  HIS348      0.0820
    170  ND1       15.1590  135.0580    5.5380 N.ar  348  HIS348     -0.2267
    171  CD2       15.6440  133.2030    6.5830 C.ar  348  HIS348      0.1154
    172  CE1       16.4110  134.7620    5.2410 C.ar  348  HIS348      0.1986
    173  NE2       16.7310  133.6410    5.8620 N.ar  348  HIS348     -0.2212
@<TRIPOS>BOND
     1    74    75    1
     2    75    76    1
     3    75    78    1
     4    77    76    2
     5    52    53    1
     6    53    54    1
     7    53    56    1
     8    78    79    1
     9    54    55    2
    10    81    80   ar
    11    56    57    1
    12    59    57   ar
    13    59    61   ar
    14    57    58   ar
    15    79    80    1
    16    80    82   ar
    17    48    49    1
    18    61    60   ar
    19    58    60   ar
    20    62    63    1
    21    72    73    1
    22    72    71    1
    23    49    50    1
    24    50    51    2
    25    73    67    1
    26    69    70    2
    27    69    68    1
    28    71    68    1
    29    85    86    2
    30    85    84    1
    31    67    68    1
    32    67    64   am
    33    93    91    1
    34    13    10    1
    35    63    64    1
    36    63    66    1
    37    64    65    2
    38    83    84    1
    39    10    11    1
    40    10     9    1
    41    12    11    2
    42    84    87    1
    43    91    92    1
    44    91    90    2
    45    87    88    1
    46    11    14   am
    47    90    89    1
    48    14    15    1
    49    88    89    1
    50    15    16    1
    51    15    18    1
    52    28    26   ar
    53    28    29   ar
    54    16    17    2
    55    26    25   ar
    56    19    18    1
    57    31    29   ar
    58    31    33   ar
    59    29    27   ar
    60     4     3    2
    61    20    21    1
    62     3     2    1
    63    25    27   ar
    64    25    24    1
    65    33    32   ar
    66    27    30   ar
    67    21    24    1
    68    21    22    1
    69     2     1    1
    70     2     5    1
    71    32    30   ar
    72    22    23    2
    73     5     6    1
    74     8     6    1
    75     6     7    1
    76    97    96    2
    77   142   143   ar
    78   142   140   ar
    79   143   141   ar
    80    94    95    1
    81    98    95    1
    82    98    99    1
    83    45    47   ar
    84    45    43   ar
    85    47    46   ar
    86    95    96    1
    87    43    42   ar
    88    43    41   ar
    89    46    44   ar
    90    42    40   ar
    91    99   100   ar
    92    99   101   ar
    93   141   139   ar
    94   140   137   ar
    95    34    35    1
    96   100   102   ar
    97    41    44   ar
    98    41    39   ar
    99   101   103   ar
   100    40    39   ar
   101   139   137   ar
   102   139   138   ar
   103    39    38    1
   104   137   135   ar
   105   102   103   ar
   106   160   158   ar
   107   160   162   ar
   108   158   157   ar
   109    35    38    1
   110    35    36    1
   111   138   136   ar
   112   135   134    1
   113   135   136   ar
   114   163   162    1
   115   162   161   ar
   116   134   131    1
   117    36    37    2
   118   157   156    1
   119   157   159   ar
   120   133   132    2
   121   156   153    1
   122   131   132    1
   123   131   130    1
   124   161   159   ar
   125   129   128    1
   126   153   152    1
   127   153   154    1
   128   127   128   ar
   129   127   125   ar
   130   128   126   ar
   131   125   123   ar
   132   155   154    2
   133   154   164   am
   134   117   116    1
   135   126   124   ar
   136   116   113    1
   137   115   114    2
   138   164   165    1
   139   123   124   ar
   140   123   122    1
   141   172   170   ar
   142   172   173   ar
   143   114   113    1
   144   114   118   am
   145   170   169   ar
   146   119   122    1
   147   119   118    1
   148   119   120    1
   149   113   112    1
   150   111   109   ar
   151   173   171   ar
   152   165   166    1
   153   165   168    1
   154   121   120    2
   155   169   171   ar
   156   169   168    1
   157   166   167    2
   158   109   110   ar
   159   109   108    1
   160   108   105    1
   161   151   149   ar
   162   107   106    2
   163   148   149    1
   164   148   145    1
   165   149   150   ar
   166   106   105    1
   167   105   104    1
   168   145   144    1
   169   145   146    1
   170   146   147    2
