@<TRIPOS>MOLECULE
tmp/1jcrB00.pdb
 181 179 0 0 0
SMALL
GASTEIGER

@<TRIPOS>ATOM
      1  N         96.8900   11.8520   34.5900 N.3    80  LEU80      -0.1245
      2  CA        95.9830   12.9950   34.5220 C.3    80  LEU80       0.1561
      3  C         94.6570   12.6880   35.2120 C.2    80  LEU80       0.2260
      4  O         93.6480   13.3710   35.0000 O.2    80  LEU80      -0.2867
      5  CB        95.7720   13.4520   33.0700 C.3    80  LEU80       0.0270
      6  CG        96.9860   14.1300   32.4160 C.3    80  LEU80       0.0019
      7  CD1       96.7170   14.3530   30.9520 C.3    80  LEU80       0.0001
      8  CD2       97.3040   15.4660   33.0920 C.3    80  LEU80       0.0001
      9  N         93.9100   13.3930   38.1000 N.3    82  ALA82      -0.1231
     10  CA        93.5320   14.5040   38.9590 C.3    82  ALA82       0.1694
     11  C         93.3650   15.7770   38.1020 C.2    82  ALA82       0.2592
     12  O         93.4240   16.9030   38.6130 O.2    82  ALA82      -0.2718
     13  CB        94.5820   14.7120   40.0600 C.3    82  ALA82       0.0304
     14  N         93.0920   15.5900   36.8090 N.am   83  SER83      -0.1952
     15  CA        92.9260   16.7100   35.8740 C.3    83  SER83       0.1924
     16  C         91.8550   16.4300   34.8310 C.2    83  SER83       0.2314
     17  O         91.9560   16.9040   33.7010 O.2    83  SER83      -0.2863
     18  CB        94.2370   16.9570   35.1180 C.3    83  SER83       0.2116
     19  OG        95.2940   17.3190   35.9780 O.3    83  SER83      -0.2180
     20  N         90.2530   19.2350   32.8510 N.3    86  TRP86      -0.1241
     21  CA        91.1600   19.7680   31.8380 C.3    86  TRP86       0.1605
     22  C         90.9990   18.9470   30.5720 C.2    86  TRP86       0.2264
     23  O         91.0670   19.4910   29.4840 O.2    86  TRP86      -0.2867
     24  CB        92.6210   19.6990   32.2740 C.3    86  TRP86       0.0550
     25  CG        93.0640   20.8300   33.1600 C.ar   86  TRP86       0.0003
     26  CD1       93.3040   20.7640   34.4990 C.ar   86  TRP86       0.0946
     27  CD2       93.4090   22.1660   32.7550 C.ar   86  TRP86       0.0152
     28  NE1       93.7920   21.9580   34.9510 N.ar   86  TRP86      -0.2442
     29  CE2       93.8650   22.8430   33.9070 C.ar   86  TRP86       0.0810
     30  CE3       93.3840   22.8530   31.5330 C.ar   86  TRP86       0.0012
     31  CZ2       94.2990   24.1880   33.8780 C.ar   86  TRP86       0.0191
     32  CZ3       93.8170   24.1930   31.5030 C.ar   86  TRP86       0.0001
     33  CH2       94.2680   24.8400   32.6710 C.ar   86  TRP86       0.0015
     34  N         90.3020   20.7910   27.2050 N.3    90  TRP90      -0.1241
     35  CA        91.2280   20.6640   26.0780 C.3    90  TRP90       0.1605
     36  C         90.5510   20.0810   24.8450 C.2    90  TRP90       0.2264
     37  O         90.7460   20.5700   23.7250 O.2    90  TRP90      -0.2867
     38  CB        92.4130   19.7560   26.4220 C.3    90  TRP90       0.0550
     39  CG        93.3650   20.2850   27.4440 C.ar   90  TRP90       0.0003
     40  CD1       93.7100   21.5890   27.6690 C.ar   90  TRP90       0.0946
     41  CD2       94.1030   19.5040   28.3890 C.ar   90  TRP90       0.0152
     42  NE1       94.6180   21.6660   28.7010 N.ar   90  TRP90      -0.2442
     43  CE2       94.8740   20.4030   29.1640 C.ar   90  TRP90       0.0810
     44  CE3       94.1880   18.1240   28.6540 C.ar   90  TRP90       0.0012
     45  CZ2       95.7170   19.9740   30.1890 C.ar   90  TRP90       0.0191
     46  CZ3       95.0330   17.6930   29.6750 C.ar   90  TRP90       0.0001
     47  CH2       95.7870   18.6220   30.4310 C.ar   90  TRP90       0.0015
     48  N         90.3430   22.5870   43.3160 N.3   133  HIS133     -0.1241
     49  CA        91.6650   23.1220   42.9890 C.3   133  HIS133      0.1621
     50  C         91.4200   24.1600   41.8790 C.2   133  HIS133      0.2264
     51  O         90.6130   23.9330   40.9750 O.2   133  HIS133     -0.2867
     52  CB        92.5290   21.9460   42.4870 C.3   133  HIS133      0.0745
     53  CG        93.9730   22.2720   42.2300 C.ar  133  HIS133      0.0817
     54  ND1       94.3850   23.1110   41.2140 N.ar  133  HIS133     -0.2268
     55  CD2       95.1080   21.7800   42.7910 C.ar  133  HIS133      0.1154
     56  CE1       95.7060   23.1180   41.1560 C.ar  133  HIS133      0.1986
     57  NE2       96.1700   22.3170   42.1010 N.ar  133  HIS133     -0.2212
     58  N         93.0950   25.0290   39.2320 N.3   135  ALA135     -0.1231
     59  CA        93.3650   24.6630   37.8490 C.3   135  ALA135      0.1679
     60  C         92.1560   23.9280   37.2470 C.2   135  ALA135      0.2434
     61  O         91.6200   24.3600   36.2150 O.2   135  ALA135     -0.2733
     62  CB        94.6620   23.8810   37.7300 C.3   135  ALA135      0.0304
     63  N         91.6900   22.8270   37.8840 N.am  136  PRO136     -0.2729
     64  CA        90.5180   22.1650   37.2870 C.3   136  PRO136      0.1401
     65  C         89.2410   23.0320   37.3620 C.2   136  PRO136      0.2269
     66  O         88.3010   22.8220   36.5880 O.2   136  PRO136     -0.2865
     67  CB        90.4040   20.8550   38.0860 C.3   136  PRO136      0.0296
     68  CG        91.1510   21.1320   39.3570 C.3   136  PRO136      0.0237
     69  CD        92.3150   21.9510   38.8900 C.3   136  PRO136      0.0939
     70  N        100.1940   25.1490   46.9070 N.3   182  GLU182     -0.1245
     71  CA       101.2040   26.1140   46.5030 C.3   182  GLU182      0.1567
     72  C        100.6140   27.4100   45.9350 C.2   182  GLU182      0.2260
     73  O         99.4400   27.4790   45.5420 O.2   182  GLU182     -0.2867
     74  CB       102.1670   25.4820   45.4810 C.3   182  GLU182      0.0388
     75  CG       101.5880   25.3030   44.0690 C.3   182  GLU182      0.1160
     76  CD       100.7420   24.0310   43.8870 C.2   182  GLU182      0.3649
     77  OE1      100.4000   23.3520   44.8840 O.co2 182  GLU182     -0.2457
     78  OE2      100.4180   23.7040   42.7190 O.co2 182  GLU182     -0.2457
     79  N         99.6640   31.2470   38.4150 N.3   186  ARG186     -0.1245
     80  CA        98.5700   30.5140   37.7720 C.3   186  ARG186      0.1563
     81  C         97.2700   30.7540   38.5480 C.2   186  ARG186      0.2260
     82  O         96.2040   30.9050   37.9600 O.2   186  ARG186     -0.2867
     83  CB        98.8280   28.9930   37.7490 C.3   186  ARG186      0.0307
     84  CG        99.9120   28.4890   36.7980 C.3   186  ARG186      0.0489
     85  CD       100.1880   26.9980   37.0660 C.3   186  ARG186      0.2205
     86  NE       100.6550   26.7690   38.4370 N.pl3 186  ARG186     -0.0865
     87  CZ       100.3300   25.7200   39.1960 C.cat 186  ARG186      0.5346
     88  NH1       99.5380   24.7580   38.7300 N.pl3 186  ARG186      0.1354
     89  NH2      100.7320   25.6690   40.4610 N.pl3 186  ARG186      0.1354
     90  N        108.8220   33.0750   32.3790 N.3   232  HIS232     -0.1241
     91  CA       108.3550   31.9120   31.6380 C.3   232  HIS232      0.1621
     92  C        107.0400   32.2000   30.9420 C.2   232  HIS232      0.2264
     93  O        106.1410   32.8150   31.5170 O.2   232  HIS232     -0.2867
     94  CB       108.1800   30.7250   32.5940 C.3   232  HIS232      0.0745
     95  CG       108.1290   29.3950   31.9090 C.ar  232  HIS232      0.0817
     96  ND1      107.0010   28.9320   31.2610 N.ar  232  HIS232     -0.2268
     97  CD2      109.0780   28.4390   31.7500 C.ar  232  HIS232      0.1154
     98  CE1      107.2590   27.7510   30.7280 C.ar  232  HIS232      0.1986
     99  NE2      108.5100   27.4290   31.0090 N.ar  232  HIS232     -0.2212
    100  N        103.6120   31.3580   32.8200 N.3   235  TYR235     -0.1241
    101  CA       103.3360   32.2870   33.9040 C.3   235  TYR235      0.1605
    102  C        103.0810   33.6890   33.3810 C.2   235  TYR235      0.2264
    103  O        102.2510   34.4040   33.9350 O.2   235  TYR235     -0.2867
    104  CB       104.5060   32.2940   34.8780 C.3   235  TYR235      0.0534
    105  CG       104.6380   30.9990   35.6210 C.ar  235  TYR235     -0.0201
    106  CD1      105.8690   30.3490   35.7240 C.ar  235  TYR235     -0.0009
    107  CD2      103.5280   30.4330   36.2560 C.ar  235  TYR235     -0.0009
    108  CE1      105.9870   29.1700   36.4510 C.ar  235  TYR235      0.0417
    109  CE2      103.6350   29.2640   36.9770 C.ar  235  TYR235      0.0417
    110  CZ       104.8620   28.6350   37.0780 C.ar  235  TYR235      0.1957
    111  OH       104.9490   27.4780   37.8270 O.3   235  TYR235     -0.2866
    112  N        108.6100   24.5120   21.6580 N.3   281  ASP281     -0.1239
    113  CA       107.5750   23.5780   22.0710 C.3   281  ASP281      0.1674
    114  C        106.2670   24.1280   21.5470 C.2   281  ASP281      0.2266
    115  O        105.9140   25.2680   21.8320 O.2   281  ASP281     -0.2867
    116  CB       107.5430   23.4960   23.6040 C.3   281  ASP281      0.1410
    117  CG       106.4080   22.6210   24.1470 C.2   281  ASP281      0.3668
    118  OD1      105.4130   22.3230   23.4440 O.co2 281  ASP281     -0.2456
    119  OD2      106.5090   22.2390   25.3280 O.co2 281  ASP281     -0.2456
    120  N        103.1580   23.9430   22.4890 N.3   283  CYS283     -0.1221
    121  CA       102.1200   24.5200   23.3510 C.3   283  CYS283      0.1808
    122  C        102.3550   26.0150   23.5710 C.2   283  CYS283      0.2601
    123  O        101.4080   26.7590   23.8060 O.2   283  CYS283     -0.2717
    124  CB       101.9940   23.7780   24.6910 C.3   283  CYS283      0.0970
    125  SG       103.4260   23.8860   25.8270 S.3   283  CYS283     -0.0800
    126  N        103.6050   26.4660   23.4250 N.am  284  TYR284     -0.1976
    127  CA       103.9220   27.8840   23.5940 C.3   284  TYR284      0.1639
    128  C        103.4280   28.7110   22.4170 C.2   284  TYR284      0.2290
    129  O        103.5690   29.9360   22.4050 O.2   284  TYR284     -0.2864
    130  CB       105.4070   28.0900   23.8040 C.3   284  TYR284      0.0560
    131  CG       105.9070   27.4270   25.0680 C.ar  284  TYR284     -0.0198
    132  CD1      107.0430   26.6180   25.0450 C.ar  284  TYR284     -0.0009
    133  CD2      105.2250   27.5740   26.2770 C.ar  284  TYR284     -0.0009
    134  CE1      107.4860   25.9590   26.1880 C.ar  284  TYR284      0.0417
    135  CE2      105.6600   26.9240   27.4280 C.ar  284  TYR284      0.0417
    136  CZ       106.7930   26.1090   27.3760 C.ar  284  TYR284      0.1957
    137  OH       107.2250   25.4090   28.4840 O.3   284  TYR284     -0.2866
    138  N        100.6520   29.9240   24.7840 N.3   287  TRP287     -0.1241
    139  CA       101.1170   30.6770   25.9450 C.3   287  TRP287      0.1605
    140  C        101.9600   31.8870   25.5790 C.2   287  TRP287      0.2264
    141  O        101.7820   32.9500   26.1520 O.2   287  TRP287     -0.2867
    142  CB       101.8840   29.7830   26.9240 C.3   287  TRP287      0.0550
    143  CG       101.1380   28.5320   27.3660 C.ar  287  TRP287      0.0003
    144  CD1      101.5290   27.2410   27.1520 C.ar  287  TRP287      0.0946
    145  CD2       99.9030   28.4580   28.1160 C.ar  287  TRP287      0.0152
    146  NE1      100.6230   26.3670   27.7170 N.ar  287  TRP287     -0.2442
    147  CE2       99.6190   27.0800   28.3190 C.ar  287  TRP287      0.0810
    148  CE3       99.0210   29.4150   28.6420 C.ar  287  TRP287      0.0012
    149  CZ2       98.4900   26.6320   29.0250 C.ar  287  TRP287      0.0191
    150  CZ3       97.8880   28.9670   29.3530 C.ar  287  TRP287      0.0001
    151  CH2       97.6360   27.5830   29.5350 C.ar  287  TRP287      0.0015
    152  N        104.3790   18.5380   20.9680 N.3   336  ASP336     -0.1239
    153  CA       105.4010   19.4610   21.4250 C.3   336  ASP336      0.1674
    154  C        106.3690   19.7490   20.2780 C.2   336  ASP336      0.2266
    155  O        106.5000   20.8910   19.8460 O.2   336  ASP336     -0.2867
    156  CB       106.0780   18.8000   22.6440 C.3   336  ASP336      0.1410
    157  CG       107.3930   19.4450   23.0680 C.2   336  ASP336      0.3668
    158  OD1      107.9770   20.3070   22.3830 O.co2 336  ASP336     -0.2456
    159  OD2      107.8860   19.0320   24.1300 O.co2 336  ASP336     -0.2456
    160  N         96.6840   17.9610   25.6750 N.3   345  TYR345     -0.1227
    161  CA        97.1610   19.2650   26.0840 C.3   345  TYR345      0.1736
    162  C         97.8240   19.9410   24.8750 C.2   345  TYR345      0.2595
    163  O         97.4930   21.0810   24.5250 O.2   345  TYR345     -0.2718
    164  CB        98.1530   19.1150   27.2530 C.3   345  TYR345      0.0548
    165  CG        99.0040   20.3480   27.5460 C.ar  345  TYR345     -0.0200
    166  CD1       98.5320   21.3780   28.3700 C.ar  345  TYR345     -0.0009
    167  CD2      100.2890   20.4740   27.0070 C.ar  345  TYR345     -0.0009
    168  CE1       99.3320   22.5080   28.6470 C.ar  345  TYR345      0.0417
    169  CE2      101.0840   21.5890   27.2710 C.ar  345  TYR345      0.0417
    170  CZ       100.5960   22.6030   28.0910 C.ar  345  TYR345      0.1957
    171  OH       101.3630   23.7190   28.3100 O.3   345  TYR345     -0.2866
    172  N         98.7350   19.2390   24.2090 N.am  346  HIS346     -0.1975
    173  CA        99.3940   19.8360   23.0620 C.3   346  HIS346      0.1656
    174  C         98.4360   19.9960   21.8900 C.2   346  HIS346      0.2291
    175  O         98.5860   20.9110   21.0820 O.2   346  HIS346     -0.2864
    176  CB       100.6410   19.0640   22.6750 C.3   346  HIS346      0.0771
    177  CG       101.8030   19.3400   23.5680 C.ar  346  HIS346      0.0820
    178  ND1      102.1250   18.5410   24.6430 N.ar  346  HIS346     -0.2267
    179  CD2      102.6840   20.3680   23.5880 C.ar  346  HIS346      0.1154
    180  CE1      103.1490   19.0650   25.2910 C.ar  346  HIS346      0.1986
    181  NE2      103.5050   20.1730   24.6690 N.ar  346  HIS346     -0.2212
@<TRIPOS>BOND
     1   155   154    2
     2   154   153    1
     3   152   153    1
     4   175   174    2
     5   153   156    1
     6   114   115    2
     7   114   113    1
     8   112   113    1
     9   174   173    1
    10   113   116    1
    11   158   157   ar
    12   129   128    2
    13   128   127    1
    14   120   121    1
    15   156   157    1
    16   176   173    1
    17   176   177    1
    18   173   172    1
    19   157   159   ar
    20   121   122    1
    21   121   124    1
    22   126   122   am
    23   126   127    1
    24   118   117   ar
    25   177   179   ar
    26   177   178   ar
    27   122   123    2
    28   179   181   ar
    29   127   130    1
    30   116   117    1
    31    37    36    2
    32   130   131    1
    33   117   119   ar
    34   172   162   am
    35   163   162    2
    36   178   180   ar
    37   181   180   ar
    38   124   125    1
    39   138   139    1
    40    36    35    1
    41   162   161    1
    42   132   131   ar
    43   132   134   ar
    44   131   133   ar
    45   140   139    1
    46   140   141    2
    47   160   161    1
    48   139   142    1
    49    35    38    1
    50    35    34    1
    51   161   164    1
    52   134   136   ar
    53   133   135   ar
    54    38    39    1
    55   142   143    1
    56   167   169   ar
    57   167   165   ar
    58   144   143   ar
    59   144   146   ar
    60   164   165    1
    61   169   170   ar
    62   143   145   ar
    63   136   135   ar
    64   136   137    1
    65    39    40   ar
    66    39    41   ar
    67   165   166   ar
    68    40    42   ar
    69   146   147   ar
    70   170   171    1
    71   170   168   ar
    72   145   147   ar
    73   145   148   ar
    74   147   149   ar
    75   166   168   ar
    76    41    44   ar
    77    41    43   ar
    78   148   150   ar
    79    44    46   ar
    80    42    43   ar
    81   149   151   ar
    82    43    45   ar
    83   150   151   ar
    84    23    22    2
    85    46    47   ar
    86    45    47   ar
    87    22    21    1
    88    98    99   ar
    89    98    96   ar
    90    92    93    2
    91    92    91    1
    92     7     6    1
    93    99    97   ar
    94    96    95   ar
    95    32    30   ar
    96    32    33   ar
    97    30    27   ar
    98    91    90    1
    99    91    94    1
   100    97    95   ar
   101    21    24    1
   102    21    20    1
   103    95    94    1
   104    24    25    1
   105     6     5    1
   106     6     8    1
   107    33    31   ar
   108    27    25   ar
   109    27    29   ar
   110   100   101    1
   111     5     2    1
   112    25    26   ar
   113   102   101    1
   114   102   103    2
   115    17    16    2
   116    31    29   ar
   117   101   104    1
   118    29    28   ar
   119    26    28   ar
   120     2     1    1
   121     2     3    1
   122    16    15    1
   123   104   105    1
   124     4     3    2
   125    18    15    1
   126    18    19    1
   127   105   106   ar
   128   105   107   ar
   129   106   108   ar
   130    15    14    1
   131    61    60    2
   132   107   109   ar
   133   108   110   ar
   134    66    65    2
   135    84    85    1
   136    84    83    1
   137    14    11   am
   138   109   110   ar
   139    85    86    1
   140   110   111    1
   141    60    59    1
   142    60    63   am
   143    64    65    1
   144    64    63    1
   145    64    67    1
   146    62    59    1
   147    83    80    1
   148    80    79    1
   149    80    81    1
   150    59    58    1
   151    63    69    1
   152    82    81    2
   153    67    68    1
   154     9    10    1
   155    11    12    2
   156    11    10    1
   157    86    87    2
   158    88    87    1
   159    69    68    1
   160    10    13    1
   161    87    89    1
   162    51    50    2
   163    56    54   ar
   164    56    57   ar
   165    54    53   ar
   166    50    49    1
   167    57    55   ar
   168    53    52    1
   169    53    55   ar
   170    52    49    1
   171    78    76   ar
   172    49    48    1
   173    76    75    1
   174    76    77   ar
   175    75    74    1
   176    74    71    1
   177    73    72    2
   178    72    71    1
   179    71    70    1
