@<TRIPOS>MOLECULE
tmp/1jcsB00.pdb
 188 184 0 0 0
SMALL
GASTEIGER

@<TRIPOS>ATOM
      1  N         97.9350    9.4740   34.7360 N.3    79  CYS79      -0.1221
      2  CA        98.6350   10.6260   35.3030 C.3    79  CYS79       0.1808
      3  C         97.7840   11.8920   35.2710 C.2    79  CYS79       0.2601
      4  O         98.1810   12.9270   35.8070 O.2    79  CYS79      -0.2717
      5  CB        99.9440   10.8830   34.5460 C.3    79  CYS79       0.0970
      6  SG        99.6850   11.3520   32.8350 S.3    79  CYS79      -0.0800
      7  N         96.6400   11.8290   34.6010 N.am   80  LEU80      -0.1979
      8  CA        95.7530   12.9810   34.5390 C.3    80  LEU80       0.1596
      9  C         94.4300   12.6610   35.2110 C.2    80  LEU80       0.2287
     10  O         93.4140   13.3160   34.9680 O.2    80  LEU80      -0.2864
     11  CB        95.5570   13.4540   33.0900 C.3    80  LEU80       0.0297
     12  CG        96.7990   14.0840   32.4300 C.3    80  LEU80       0.0022
     13  CD1       96.5280   14.3290   30.9720 C.3    80  LEU80       0.0001
     14  CD2       97.1770   15.3940   33.1100 C.3    80  LEU80       0.0001
     15  N         93.6950   13.3330   38.0650 N.3    82  ALA82      -0.1231
     16  CA        93.3230   14.4540   38.9110 C.3    82  ALA82       0.1694
     17  C         93.1700   15.7340   38.0690 C.2    82  ALA82       0.2592
     18  O         93.2550   16.8550   38.5970 O.2    82  ALA82      -0.2718
     19  CB        94.3540   14.6460   40.0160 C.3    82  ALA82       0.0304
     20  N         92.8930   15.5710   36.7730 N.am   83  SER83      -0.1952
     21  CA        92.7350   16.7150   35.8630 C.3    83  SER83       0.1924
     22  C         91.6710   16.4650   34.8110 C.2    83  SER83       0.2314
     23  O         91.7380   17.0170   33.7140 O.2    83  SER83      -0.2863
     24  CB        94.0500   16.9990   35.1330 C.3    83  SER83       0.2116
     25  OG        95.1020   17.2130   36.0450 O.3    83  SER83      -0.2180
     26  N         90.0950   19.2570   32.8580 N.3    86  TRP86      -0.1241
     27  CA        91.0190   19.7830   31.8550 C.3    86  TRP86       0.1605
     28  C         90.8370   18.9680   30.5910 C.2    86  TRP86       0.2264
     29  O         90.8670   19.5090   29.4960 O.2    86  TRP86      -0.2867
     30  CB        92.4680   19.6540   32.2960 C.3    86  TRP86       0.0550
     31  CG        92.9420   20.7800   33.1490 C.ar   86  TRP86       0.0003
     32  CD1       93.1940   20.7330   34.4850 C.ar   86  TRP86       0.0946
     33  CD2       93.2470   22.1210   32.7270 C.ar   86  TRP86       0.0152
     34  NE1       93.6430   21.9520   34.9240 N.ar   86  TRP86      -0.2442
     35  CE2       93.6840   22.8270   33.8700 C.ar   86  TRP86       0.0810
     36  CE3       93.1970   22.7910   31.4990 C.ar   86  TRP86       0.0012
     37  CZ2       94.0700   24.1830   33.8260 C.ar   86  TRP86       0.0191
     38  CZ3       93.5810   24.1410   31.4550 C.ar   86  TRP86       0.0001
     39  CH2       94.0120   24.8170   32.6140 C.ar   86  TRP86       0.0015
     40  N         90.1360   20.7390   27.1440 N.3    90  TRP90      -0.1241
     41  CA        91.0360   20.6280   25.9950 C.3    90  TRP90       0.1605
     42  C         90.3160   20.0400   24.7850 C.2    90  TRP90       0.2264
     43  O         90.4690   20.5240   23.6570 O.2    90  TRP90      -0.2867
     44  CB        92.2490   19.7410   26.3030 C.3    90  TRP90       0.0550
     45  CG        93.1600   20.2410   27.3650 C.ar   90  TRP90       0.0003
     46  CD1       93.5020   21.5410   27.6290 C.ar   90  TRP90       0.0946
     47  CD2       93.8680   19.4370   28.3070 C.ar   90  TRP90       0.0152
     48  NE1       94.3870   21.5930   28.6780 N.ar   90  TRP90      -0.2442
     49  CE2       94.6310   20.3190   29.1170 C.ar   90  TRP90       0.0810
     50  CE3       93.9390   18.0510   28.5440 C.ar   90  TRP90       0.0012
     51  CZ2       95.4550   19.8620   30.1480 C.ar   90  TRP90       0.0191
     52  CZ3       94.7610   17.5910   29.5690 C.ar   90  TRP90       0.0001
     53  CH2       95.5110   18.5010   30.3610 C.ar   90  TRP90       0.0015
     54  N         90.1510   22.5910   43.3290 N.3   133  HIS133     -0.1241
     55  CA        91.4660   23.1320   43.0080 C.3   133  HIS133      0.1621
     56  C         91.1920   24.1620   41.8980 C.2   133  HIS133      0.2264
     57  O         90.3390   23.9410   41.0310 O.2   133  HIS133     -0.2867
     58  CB        92.3250   21.9510   42.5150 C.3   133  HIS133      0.0745
     59  CG        93.7630   22.2730   42.2330 C.ar  133  HIS133      0.0817
     60  ND1       94.1580   23.1180   41.2160 N.ar  133  HIS133     -0.2268
     61  CD2       94.9050   21.7660   42.7620 C.ar  133  HIS133      0.1154
     62  CE1       95.4770   23.1140   41.1280 C.ar  133  HIS133      0.1986
     63  NE2       95.9550   22.3010   42.0540 N.ar  133  HIS133     -0.2212
     64  N         92.8700   25.0640   39.2090 N.3   135  ALA135     -0.1231
     65  CA        93.1250   24.6990   37.8190 C.3   135  ALA135      0.1679
     66  C         91.9160   23.9420   37.2340 C.2   135  ALA135      0.2434
     67  O         91.3690   24.3600   36.2060 O.2   135  ALA135     -0.2733
     68  CB        94.4430   23.9470   37.6760 C.3   135  ALA135      0.0304
     69  N         91.4460   22.8560   37.9020 N.am  136  PRO136     -0.2729
     70  CA        90.2770   22.0960   37.4130 C.3   136  PRO136      0.1401
     71  C         89.0180   22.9960   37.3980 C.2   136  PRO136      0.2269
     72  O         88.1040   22.7850   36.5960 O.2   136  PRO136     -0.2865
     73  CB        90.1040   21.0070   38.4750 C.3   136  PRO136      0.0296
     74  CG        91.4690   20.7990   38.9820 C.3   136  PRO136      0.0237
     75  CD        92.0580   22.1720   39.0560 C.3   136  PRO136      0.0939
     76  N        100.0210   25.1650   46.9920 N.3   182  GLU182     -0.1245
     77  CA       101.0260   26.1380   46.5830 C.3   182  GLU182      0.1567
     78  C        100.4470   27.4400   46.0010 C.2   182  GLU182      0.2260
     79  O         99.2680   27.5230   45.6200 O.2   182  GLU182     -0.2867
     80  CB       101.9940   25.4960   45.5710 C.3   182  GLU182      0.0388
     81  CG       101.4320   25.3020   44.1520 C.3   182  GLU182      0.1160
     82  CD       100.6700   23.9890   43.9520 C.2   182  GLU182      0.3649
     83  OE1      100.3150   23.2960   44.9420 O.co2 182  GLU182     -0.2457
     84  OE2      100.4210   23.6490   42.7740 O.co2 182  GLU182     -0.2457
     85  N         99.5080   31.2420   38.3270 N.3   186  ARG186     -0.1245
     86  CA        98.3960   30.5240   37.6980 C.3   186  ARG186      0.1563
     87  C         97.0890   30.7740   38.4700 C.2   186  ARG186      0.2260
     88  O         96.0230   30.9150   37.8680 O.2   186  ARG186     -0.2867
     89  CB        98.6350   29.0020   37.6790 C.3   186  ARG186      0.0307
     90  CG        99.7670   28.4700   36.8100 C.3   186  ARG186      0.0489
     91  CD        99.9860   26.9700   37.0890 C.3   186  ARG186      0.2205
     92  NE       100.3990   26.7320   38.4760 N.pl3 186  ARG186     -0.0865
     93  CZ       100.0900   25.6560   39.2020 C.cat 186  ARG186      0.5346
     94  NH1       99.3610   24.6720   38.6900 N.pl3 186  ARG186      0.1354
     95  NH2      100.4760   25.5780   40.4730 N.pl3 186  ARG186      0.1354
     96  N        108.4590   24.4620   21.5600 N.3   281  ASP281     -0.1239
     97  CA       107.3910   23.5570   21.9620 C.3   281  ASP281      0.1674
     98  C        106.0640   24.0860   21.4310 C.2   281  ASP281      0.2266
     99  O        105.6780   25.2310   21.7000 O.2   281  ASP281     -0.2867
    100  CB       107.3470   23.4490   23.4950 C.3   281  ASP281      0.1410
    101  CG       106.2220   22.5330   24.0210 C.2   281  ASP281      0.3668
    102  OD1      105.2160   22.2740   23.3200 O.co2 281  ASP281     -0.2456
    103  OD2      106.3410   22.0830   25.1810 O.co2 281  ASP281     -0.2456
    104  N        103.0000   23.8400   22.4070 N.3   283  CYS283     -0.1221
    105  CA       101.9920   24.4480   23.2960 C.3   283  CYS283      0.1808
    106  C        102.2250   25.9400   23.5090 C.2   283  CYS283      0.2601
    107  O        101.2770   26.6800   23.7690 O.2   283  CYS283     -0.2717
    108  CB       101.8720   23.7210   24.6400 C.3   283  CYS283      0.0970
    109  SG       103.3640   23.7290   25.6710 S.3   283  CYS283     -0.0800
    110  N        103.4680   26.3960   23.3330 N.am  284  TYR284     -0.1976
    111  CA       103.7750   27.8170   23.4960 C.3   284  TYR284      0.1639
    112  C        103.2460   28.6310   22.3290 C.2   284  TYR284      0.2290
    113  O        103.3280   29.8570   22.3350 O.2   284  TYR284     -0.2864
    114  CB       105.2640   28.0450   23.6860 C.3   284  TYR284      0.0560
    115  CG       105.7880   27.3840   24.9480 C.ar  284  TYR284     -0.0198
    116  CD1      106.9050   26.5520   24.9010 C.ar  284  TYR284     -0.0009
    117  CD2      105.1340   27.5480   26.1790 C.ar  284  TYR284     -0.0009
    118  CE1      107.3550   25.8920   26.0370 C.ar  284  TYR284      0.0417
    119  CE2      105.5790   26.8880   27.3330 C.ar  284  TYR284      0.0417
    120  CZ       106.6940   26.0520   27.2510 C.ar  284  TYR284      0.1957
    121  OH       107.1560   25.3430   28.3530 O.3   284  TYR284     -0.2866
    122  N        100.5290   29.8750   24.7580 N.3   287  TRP287     -0.1241
    123  CA       101.0120   30.6300   25.9130 C.3   287  TRP287      0.1605
    124  C        101.8560   31.8490   25.5350 C.2   287  TRP287      0.2264
    125  O        101.6550   32.9240   26.0840 O.2   287  TRP287     -0.2867
    126  CB       101.7860   29.7350   26.8810 C.3   287  TRP287      0.0550
    127  CG       101.0360   28.5060   27.3380 C.ar  287  TRP287      0.0003
    128  CD1      101.4240   27.2090   27.1530 C.ar  287  TRP287      0.0946
    129  CD2       99.7800   28.4510   28.0500 C.ar  287  TRP287      0.0152
    130  NE1      100.4940   26.3500   27.6990 N.ar  287  TRP287     -0.2442
    131  CE2       99.4770   27.0800   28.2580 C.ar  287  TRP287      0.0810
    132  CE3       98.8910   29.4200   28.5380 C.ar  287  TRP287      0.0012
    133  CZ2       98.3240   26.6530   28.9320 C.ar  287  TRP287      0.0191
    134  CZ3       97.7320   28.9930   29.2160 C.ar  287  TRP287      0.0001
    135  CH2       97.4640   27.6180   29.4030 C.ar  287  TRP287      0.0015
    136  N        104.2120   18.4850   20.9650 N.3   336  ASP336     -0.1239
    137  CA       105.2250   19.4280   21.4120 C.3   336  ASP336      0.1674
    138  C        106.2030   19.6790   20.2570 C.2   336  ASP336      0.2266
    139  O        106.3560   20.8070   19.8200 O.2   336  ASP336     -0.2867
    140  CB       105.8760   18.8040   22.6700 C.3   336  ASP336      0.1410
    141  CG       107.2410   19.3790   23.0360 C.2   336  ASP336      0.3668
    142  OD1      107.7800   20.2770   22.3680 O.co2 336  ASP336     -0.2456
    143  OD2      107.8060   18.8930   24.0380 O.co2 336  ASP336     -0.2456
    144  N        108.0140   13.6660   19.8730 N.3   340  LYS340     -0.1231
    145  CA       107.1780   13.6210   21.0610 C.3   340  LYS340      0.1693
    146  C        105.8490   13.0050   20.6690 C.2   340  LYS340      0.2592
    147  O        105.4320   13.0870   19.5060 O.2   340  LYS340     -0.2718
    148  CB       106.9420   15.0290   21.6270 C.3   340  LYS340      0.0285
    149  CG       108.1940   15.6940   22.1750 C.3   340  LYS340      0.0035
    150  CD       108.8750   14.7800   23.1830 C.3   340  LYS340      0.0206
    151  CE       110.2040   15.3350   23.6820 C.3   340  LYS340      0.1093
    152  NZ       110.0070   16.4600   24.6340 N.3   340  LYS340     -0.1314
    153  N        105.2050   12.3530   21.6300 N.am  341  SER341     -0.1952
    154  CA       103.9100   11.7340   21.4000 C.3   341  SER341      0.1924
    155  C        102.7920   12.7640   21.5960 C.2   341  SER341      0.2314
    156  O        102.9200   13.7120   22.3830 O.2   341  SER341     -0.2863
    157  CB       103.7120   10.5360   22.3350 C.3   341  SER341      0.2116
    158  OG       104.3470   10.7420   23.5880 O.3   341  SER341     -0.2180
    159  N         99.0910   14.3560   22.5940 N.3   343  ASP343     -0.1239
    160  CA        98.3280   14.3320   23.8320 C.3   343  ASP343      0.1674
    161  C         97.2970   15.4230   23.7170 C.2   343  ASP343      0.2266
    162  O         97.4540   16.3400   22.9050 O.2   343  ASP343     -0.2867
    163  CB        99.2060   14.4340   25.0920 C.3   343  ASP343      0.1410
    164  CG        99.9500   15.7420   25.2010 C.2   343  ASP343      0.3668
    165  OD1       99.2960   16.7890   25.2340 O.co2 343  ASP343     -0.2456
    166  OD2      101.1910   15.7230   25.2990 O.co2 343  ASP343     -0.2456
    167  N         96.5450   17.9070   25.6580 N.3   345  TYR345     -0.1227
    168  CA        97.0160   19.2300   26.0520 C.3   345  TYR345      0.1736
    169  C         97.6260   19.9550   24.8450 C.2   345  TYR345      0.2595
    170  O         97.2460   21.0860   24.5300 O.2   345  TYR345     -0.2718
    171  CB        98.0450   19.0960   27.1830 C.3   345  TYR345      0.0548
    172  CG        98.8360   20.3610   27.5050 C.ar  345  TYR345     -0.0200
    173  CD1       98.3480   21.3090   28.4130 C.ar  345  TYR345     -0.0009
    174  CD2      100.1000   20.5780   26.9420 C.ar  345  TYR345     -0.0009
    175  CE1       99.1110   22.4420   28.7570 C.ar  345  TYR345      0.0417
    176  CE2      100.8590   21.7020   27.2750 C.ar  345  TYR345      0.0417
    177  CZ       100.3590   22.6280   28.1840 C.ar  345  TYR345      0.1957
    178  OH       101.1220   23.7250   28.5130 O.3   345  TYR345     -0.2866
    179  N         98.5390   19.2880   24.1420 N.am  346  HIS346     -0.1975
    180  CA        99.1860   19.8880   22.9880 C.3   346  HIS346      0.1656
    181  C         98.2460   20.0130   21.8090 C.2   346  HIS346      0.2291
    182  O         98.4460   20.8600   20.9370 O.2   346  HIS346     -0.2864
    183  CB       100.4320   19.1210   22.6040 C.3   346  HIS346      0.0771
    184  CG       101.5840   19.3690   23.5190 C.ar  346  HIS346      0.0820
    185  ND1      101.8850   18.5430   24.5800 N.ar  346  HIS346     -0.2267
    186  CD2      102.4960   20.3700   23.5520 C.ar  346  HIS346      0.1154
    187  CE1      102.9290   19.0240   25.2300 C.ar  346  HIS346      0.1986
    188  NE2      103.3180   20.1330   24.6260 N.ar  346  HIS346     -0.2212
@<TRIPOS>BOND
     1   147   146    2
     2   139   138    2
     3   144   145    1
     4   138   137    1
     5   146   145    1
     6   146   153   am
     7   182   181    2
     8   136   137    1
     9   145   148    1
    10   154   155    1
    11   154   153    1
    12   154   157    1
    13   137   140    1
    14    98    99    2
    15    98    97    1
    16    96    97    1
    17   155   156    2
    18   148   149    1
    19   181   180    1
    20    97   100    1
    21   149   150    1
    22   112   113    2
    23   112   111    1
    24   157   158    1
    25   142   141   ar
    26   104   105    1
    27   159   160    1
    28   183   180    1
    29   183   184    1
    30   140   141    1
    31   162   161    2
    32   180   179    1
    33   141   143   ar
    34   150   151    1
    35   105   106    1
    36   105   108    1
    37   102   101   ar
    38   110   111    1
    39   110   106   am
    40   100   101    1
    41   111   114    1
    42   106   107    2
    43   184   186   ar
    44   184   185   ar
    45   186   188   ar
    46    43    42    2
    47   151   152    1
    48   114   115    1
    49   161   160    1
    50   160   163    1
    51   101   103   ar
    52   179   169   am
    53   170   169    2
    54   185   187   ar
    55   188   187   ar
    56   108   109    1
    57   122   123    1
    58    42    41    1
    59   169   168    1
    60   116   115   ar
    61   116   118   ar
    62   115   117   ar
    63   163   164    1
    64   164   165   ar
    65   164   166   ar
    66   124   123    1
    67   124   125    2
    68   167   168    1
    69   123   126    1
    70    41    44    1
    71    41    40    1
    72   118   120   ar
    73   168   171    1
    74   117   119   ar
    75    44    45    1
    76   126   127    1
    77   174   176   ar
    78   174   172   ar
    79   128   127   ar
    80   128   130   ar
    81   171   172    1
    82   120   119   ar
    83   120   121    1
    84   176   177   ar
    85   127   129   ar
    86    45    46   ar
    87    45    47   ar
    88   172   173   ar
    89    46    48   ar
    90   130   131   ar
    91   129   131   ar
    92   129   132   ar
    93   177   178    1
    94   177   175   ar
    95   131   133   ar
    96    47    50   ar
    97    47    49   ar
    98   173   175   ar
    99   132   134   ar
   100    50    52   ar
   101    48    49   ar
   102   133   135   ar
   103    49    51   ar
   104   134   135   ar
   105    29    28    2
   106    52    53   ar
   107    51    53   ar
   108    28    27    1
   109    13    12    1
   110    38    36   ar
   111    38    39   ar
   112    36    33   ar
   113    27    30    1
   114    27    26    1
   115    30    31    1
   116    12    11    1
   117    12    14    1
   118    39    37   ar
   119    33    31   ar
   120    33    35   ar
   121     6     5    1
   122    11     8    1
   123    31    32   ar
   124    23    22    2
   125    37    35   ar
   126    35    34   ar
   127    32    34   ar
   128     8     7    1
   129     8     9    1
   130     5     2    1
   131     7     3   am
   132     1     2    1
   133    22    21    1
   134    10     9    2
   135    24    21    1
   136    24    25    1
   137     3     2    1
   138     3     4    2
   139    21    20    1
   140    67    66    2
   141    72    71    2
   142    20    17   am
   143    90    91    1
   144    90    89    1
   145    91    92    1
   146    66    65    1
   147    66    69   am
   148    71    70    1
   149    70    69    1
   150    70    73    1
   151    68    65    1
   152    89    86    1
   153    86    85    1
   154    86    87    1
   155    65    64    1
   156    88    87    2
   157    69    75    1
   158    15    16    1
   159    17    18    2
   160    17    16    1
   161    73    74    1
   162    92    93    2
   163    94    93    1
   164    16    19    1
   165    74    75    1
   166    93    95    1
   167    57    56    2
   168    62    60   ar
   169    62    63   ar
   170    60    59   ar
   171    56    55    1
   172    63    61   ar
   173    59    58    1
   174    59    61   ar
   175    58    55    1
   176    84    82   ar
   177    55    54    1
   178    82    81    1
   179    82    83   ar
   180    81    80    1
   181    80    77    1
   182    79    78    2
   183    78    77    1
   184    77    76    1
