@<TRIPOS>MOLECULE
tmp/1jcxA00.pdb
 184 172 0 0 0
SMALL
GASTEIGER

@<TRIPOS>ATOM
      1  N         32.9870   58.6960   26.0190 N.3    10  CYS10      -0.1235
      2  CA        33.5500   57.5600   25.3010 C.3    10  CYS10       0.1677
      3  C         34.6910   56.8870   26.0600 C.2    10  CYS10       0.2270
      4  O         34.6850   55.6690   26.2680 O.2    10  CYS10      -0.2867
      5  CB        34.0490   58.0070   23.9240 C.3    10  CYS10       0.0956
      6  SG        34.8900   56.7000   22.9850 S.3    10  CYS10      -0.0801
      7  N         28.2070   54.7980   31.2380 N.3    40  LYS40      -0.1245
      8  CA        29.1940   54.1020   30.4190 C.3    40  LYS40       0.1561
      9  C         30.4610   54.8890   30.1230 C.2    40  LYS40       0.2260
     10  O         30.4160   56.0830   29.8600 O.2    40  LYS40      -0.2867
     11  CB        28.5540   53.7010   29.0770 C.3    40  LYS40       0.0271
     12  CG        29.4670   52.9260   28.1090 C.3    40  LYS40       0.0035
     13  CD        30.4480   53.8260   27.3520 C.3    40  LYS40       0.0206
     14  CE        31.5000   53.0060   26.5990 C.3    40  LYS40       0.1093
     15  NZ        32.4550   53.8580   25.8210 N.3    40  LYS40      -0.1314
     16  N         40.6100   52.0350   24.8540 N.3    45  LYS45      -0.1245
     17  CA        40.1840   52.0440   23.4610 C.3    45  LYS45       0.1561
     18  C         41.2280   51.1240   22.8390 C.2    45  LYS45       0.2260
     19  O         42.2650   51.5760   22.3460 O.2    45  LYS45      -0.2867
     20  CB        40.2790   53.4550   22.8750 C.3    45  LYS45       0.0271
     21  CG        39.5610   54.5240   23.6960 C.3    45  LYS45       0.0035
     22  CD        38.1360   54.1030   24.0970 C.3    45  LYS45       0.0206
     23  CE        37.2510   53.8350   22.8900 C.3    45  LYS45       0.1093
     24  NZ        35.8540   53.4810   23.2980 N.3    45  LYS45      -0.1314
     25  N         41.1230   49.2920   20.1460 N.3    47  ASN47      -0.1225
     26  CA        41.0910   49.0970   18.7040 C.3    47  ASN47       0.1785
     27  C         41.2220   50.3730   17.8700 C.2    47  ASN47       0.2597
     28  O         40.7310   50.4170   16.7370 O.2    47  ASN47      -0.2718
     29  CB        39.7880   48.3930   18.3150 C.3    47  ASN47       0.1169
     30  CG        38.5680   49.2590   18.5640 C.2    47  ASN47       0.2627
     31  OD1       37.4760   48.9750   18.0700 O.2    47  ASN47      -0.2716
     32  ND2       38.7470   50.3270   19.3360 N.am   47  ASN47      -0.0877
     33  N         41.8680   51.4050   18.4110 N.am   48  ARG48      -0.1966
     34  CA        42.0350   52.6530   17.6620 C.3    48  ARG48       0.1729
     35  C         42.7400   52.3550   16.3370 C.2    48  ARG48       0.2617
     36  O         43.5270   51.4170   16.2450 O.2    48  ARG48      -0.2715
     37  CB        42.8820   53.6720   18.4470 C.3    48  ARG48       0.0348
     38  CG        42.2990   54.1570   19.7760 C.3    48  ARG48       0.0492
     39  CD        40.9300   54.7970   19.6160 C.3    48  ARG48       0.2205
     40  NE        40.9280   56.0050   18.7890 N.pl3  48  ARG48      -0.0865
     41  CZ        41.1900   57.2350   19.2290 C.cat  48  ARG48       0.5346
     42  NH1       41.4900   57.4520   20.5070 N.pl3  48  ARG48       0.1354
     43  NH2       41.1250   58.2580   18.3900 N.pl3  48  ARG48       0.1354
     44  N         42.4660   53.1590   15.3160 N.am   49  SER49      -0.1936
     45  CA        43.1000   52.9620   14.0160 C.3    49  SER49       0.2055
     46  C         44.6070   53.2190   14.0890 C.2    49  SER49       0.2643
     47  O         45.4060   52.4310   13.5800 O.2    49  SER49      -0.2714
     48  CB        42.4830   53.9020   12.9720 C.3    49  SER49       0.2130
     49  OG        41.0960   53.6460   12.8060 O.3    49  SER49      -0.2179
     50  N         44.9880   54.3220   14.7270 N.am   50  SER50      -0.1949
     51  CA        46.3980   54.6950   14.8440 C.3    50  SER50       0.1924
     52  C         47.0530   54.3290   16.1700 C.2    50  SER50       0.2314
     53  O         46.4430   54.4430   17.2340 O.2    50  SER50      -0.2863
     54  CB        46.5610   56.1990   14.6230 C.3    50  SER50       0.2116
     55  OG        47.9030   56.5950   14.8600 O.3    50  SER50      -0.2180
     56  N         46.9970   57.2170   18.7430 N.3    53  SER53      -0.1217
     57  CA        45.7880   57.7160   19.3900 C.3    53  SER53       0.1889
     58  C         45.6530   57.3280   20.8600 C.2    53  SER53       0.2288
     59  O         46.2250   56.3380   21.3170 O.2    53  SER53      -0.2866
     60  CB        44.5530   57.2440   18.6180 C.3    53  SER53       0.2089
     61  OG        44.5420   57.7900   17.3100 O.3    53  SER53      -0.2183
     62  N         33.4140   48.1500   28.4590 N.3    80  ASP80      -0.1239
     63  CA        33.7180   47.0320   27.5740 C.3    80  ASP80       0.1674
     64  C         35.0240   46.3060   27.8840 C.2    80  ASP80       0.2266
     65  O         35.9510   46.8970   28.4380 O.2    80  ASP80      -0.2867
     66  CB        33.6810   47.5010   26.0980 C.3    80  ASP80       0.1410
     67  CG        34.5230   48.7600   25.8310 C.2    80  ASP80       0.3668
     68  OD1       34.8120   49.5370   26.7650 O.co2  80  ASP80      -0.2456
     69  OD2       34.8770   48.9910   24.6560 O.co2  80  ASP80      -0.2456
     70  N         30.1440   45.0450   28.4030 N.3    98  GLN98      -0.1245
     71  CA        29.9850   45.2960   26.9720 C.3    98  GLN98       0.1566
     72  C         31.0180   44.5660   26.1200 C.2    98  GLN98       0.2260
     73  O         32.1970   44.5310   26.4660 O.2    98  GLN98      -0.2867
     74  CB        30.0670   46.8040   26.7080 C.3    98  GLN98       0.0367
     75  CG        29.9480   47.2270   25.2420 C.3    98  GLN98       0.0905
     76  CD        29.8740   48.7440   25.0860 C.2    98  GLN98       0.2608
     77  OE1       30.6390   49.3470   24.3230 O.2    98  GLN98      -0.2717
     78  NE2       28.9510   49.3660   25.8090 N.am   98  GLN98      -0.0878
     79  N         32.8070   44.5570   22.4880 N.3   100  PRO100     -0.2102
     80  CA        33.0310   45.3830   21.2960 C.3   100  PRO100      0.1504
     81  C         32.5370   44.7300   20.0020 C.2   100  PRO100      0.2576
     82  O         32.5570   43.5010   19.8590 O.2   100  PRO100     -0.2718
     83  CB        34.5460   45.5840   21.2950 C.3   100  PRO100      0.0282
     84  CG        34.8860   45.5700   22.7610 C.3   100  PRO100      0.0208
     85  CD        34.0520   44.4060   23.2630 C.3   100  PRO100      0.0893
     86  N         32.1140   45.5700   19.0630 N.am  101  ALA101     -0.1966
     87  CA        31.6000   45.1260   17.7720 C.3   101  ALA101      0.1728
     88  C         32.5310   44.1830   17.0080 C.2   101  ALA101      0.2616
     89  O         32.0850   43.1700   16.4690 O.2   101  ALA101     -0.2715
     90  CB        31.2730   46.3410   16.9100 C.3   101  ALA101      0.0334
     91  N         33.8180   44.5070   16.9420 N.am  102  PHE102     -0.1974
     92  CA        34.7440   43.6310   16.2200 C.3   102  PHE102      0.1639
     93  C         34.9320   42.2760   16.9070 C.2   102  PHE102      0.2290
     94  O         35.3700   41.3130   16.2770 O.2   102  PHE102     -0.2864
     95  CB        36.1400   44.2630   16.0810 C.3   102  PHE102      0.0560
     96  CG        36.1840   45.5300   15.2610 C.ar  102  PHE102     -0.0200
     97  CD1       35.3100   45.7370   14.1930 C.ar  102  PHE102     -0.0042
     98  CD2       37.1530   46.5000   15.5320 C.ar  102  PHE102     -0.0042
     99  CE1       35.4010   46.8950   13.4020 C.ar  102  PHE102     -0.0003
    100  CE2       37.2560   47.6580   14.7510 C.ar  102  PHE102     -0.0003
    101  CZ        36.3750   47.8550   13.6810 C.ar  102  PHE102     -0.0000
    102  N         27.7970   44.4850   21.0680 N.3   123  LYS123     -0.1245
    103  CA        27.6570   45.4100   19.9530 C.3   123  LYS123      0.1561
    104  C         27.6600   44.5400   18.6990 C.2   123  LYS123      0.2260
    105  O         28.5690   43.7190   18.5160 O.2   123  LYS123     -0.2867
    106  CB        28.8440   46.3770   19.8970 C.3   123  LYS123      0.0271
    107  CG        28.9670   47.3450   21.0730 C.3   123  LYS123      0.0035
    108  CD        27.7400   48.2370   21.1960 C.3   123  LYS123      0.0206
    109  CE        28.1200   49.6540   21.5890 C.3   123  LYS123      0.1093
    110  NZ        28.8930   50.3230   20.5060 N.3   123  LYS123     -0.1314
    111  N         29.8920   45.1720   12.4800 N.3   126  GLN126     -0.1245
    112  CA        29.5630   45.8430   11.2250 C.3   126  GLN126      0.1566
    113  C         29.4940   44.8450   10.0620 C.2   126  GLN126      0.2260
    114  O         28.9880   45.1590    8.9840 O.2   126  GLN126     -0.2867
    115  CB        30.6140   46.9210   10.9260 C.3   126  GLN126      0.0367
    116  CG        30.6960   48.0060   11.9990 C.3   126  GLN126      0.0905
    117  CD        31.7230   47.7220   13.0810 C.2   126  GLN126      0.2608
    118  OE1       31.8770   46.5890   13.5350 O.2   126  GLN126     -0.2717
    119  NE2       32.4250   48.7720   13.5150 N.am  126  GLN126     -0.0878
    120  N         24.6800   49.1380   15.7970 N.3   153  ARG153     -0.1245
    121  CA        25.6030   50.2620   15.6330 C.3   153  ARG153      0.1563
    122  C         26.0440   50.4700   14.1840 C.2   153  ARG153      0.2260
    123  O         27.1300   50.9850   13.9180 O.2   153  ARG153     -0.2867
    124  CB        26.8240   50.1000   16.5580 C.3   153  ARG153      0.0307
    125  CG        27.5740   48.7910   16.4010 C.3   153  ARG153      0.0489
    126  CD        28.7380   48.9320   15.4320 C.3   153  ARG153      0.2205
    127  NE        29.8590   49.6730   16.0180 N.pl3 153  ARG153     -0.0865
    128  CZ        30.3740   50.7830   15.4940 C.cat 153  ARG153      0.5346
    129  NH1       29.8610   51.2870   14.3810 N.pl3 153  ARG153      0.1354
    130  NH2       31.4170   51.3740   16.0640 N.pl3 153  ARG153      0.1354
    131  N         27.6970   55.9310   17.3980 N.3   184  HIS184     -0.1241
    132  CA        28.6050   55.2030   16.5110 C.3   184  HIS184      0.1621
    133  C         28.0030   54.8190   15.1630 C.2   184  HIS184      0.2264
    134  O         28.7310   54.5130   14.2210 O.2   184  HIS184     -0.2867
    135  CB        29.1220   53.9280   17.1840 C.3   184  HIS184      0.0745
    136  CG        29.9730   54.1830   18.3850 C.ar  184  HIS184      0.0817
    137  ND1       29.4580   54.2430   19.6620 N.ar  184  HIS184     -0.2268
    138  CD2       31.3000   54.4250   18.5010 C.ar  184  HIS184      0.1154
    139  CE1       30.4320   54.5090   20.5140 C.ar  184  HIS184      0.1986
    140  NE2       31.5590   54.6250   19.8350 N.ar  184  HIS184     -0.2212
    141  N         29.1180   57.5330   12.5240 N.3   187  GLN187     -0.1245
    142  CA        30.5410   57.8170   12.3480 C.3   187  GLN187      0.1566
    143  C         31.1060   57.1540   11.0960 C.2   187  GLN187      0.2260
    144  O         30.8180   55.9900   10.8060 O.2   187  GLN187     -0.2867
    145  CB        31.3390   57.3490   13.5660 C.3   187  GLN187      0.0367
    146  CG        31.0850   55.9010   13.9330 C.3   187  GLN187      0.0905
    147  CD        32.0980   55.3530   14.9160 C.2   187  GLN187      0.2608
    148  OE1       32.4430   56.0080   15.9030 O.2   187  GLN187     -0.2717
    149  NE2       32.5730   54.1370   14.6570 N.am  187  GLN187     -0.0878
    150  N         33.8100   55.3260    9.4290 N.3   189  PRO189     -0.2116
    151  CA        34.9690   54.4870    9.7510 C.3   189  PRO189      0.1372
    152  C         36.2670   55.0060    9.1420 C.2   189  PRO189      0.2244
    153  O         36.6500   54.5980    8.0490 O.2   189  PRO189     -0.2868
    154  CB        34.5700   53.1280    9.1870 C.3   189  PRO189      0.0268
    155  CG        33.0980   53.1090    9.4180 C.3   189  PRO189      0.0207
    156  CD        32.6780   54.4970    8.9780 C.3   189  PRO189      0.0892
    157  N         21.9200   54.0300   23.3230 N.3   211  PHE211     -0.1241
    158  CA        23.2900   54.1640   23.7850 C.3   211  PHE211      0.1605
    159  C         23.8190   55.4740   23.1980 C.2   211  PHE211      0.2264
    160  O         23.7630   55.6840   21.9860 O.2   211  PHE211     -0.2867
    161  CB        24.0700   52.9430   23.2710 C.3   211  PHE211      0.0534
    162  CG        25.5280   52.9520   23.6000 C.ar  211  PHE211     -0.0203
    163  CD1       26.4110   53.7640   22.8930 C.ar  211  PHE211     -0.0042
    164  CD2       26.0290   52.1220   24.6060 C.ar  211  PHE211     -0.0042
    165  CE1       27.7780   53.7510   23.1790 C.ar  211  PHE211     -0.0003
    166  CE2       27.3900   52.0990   24.9030 C.ar  211  PHE211     -0.0003
    167  CZ        28.2680   52.9160   24.1880 C.ar  211  PHE211     -0.0000
    168  N         27.1210   58.4110   23.5250 N.3   213  GLU213     -0.1245
    169  CA        28.3570   58.8970   24.1160 C.3   213  GLU213      0.1567
    170  C         28.1480   60.3930   24.2780 C.2   213  GLU213      0.2260
    171  O         27.6730   61.0630   23.3590 O.2   213  GLU213     -0.2867
    172  CB        29.5420   58.6240   23.1980 C.3   213  GLU213      0.0388
    173  CG        29.7070   57.1620   22.8730 C.3   213  GLU213      0.1160
    174  CD        31.1400   56.7970   22.5800 C.2   213  GLU213      0.3649
    175  OE1       31.7240   57.3820   21.6400 O.co2 213  GLU213     -0.2457
    176  OE2       31.6790   55.9240   23.2970 O.co2 213  GLU213     -0.2457
    177  N         36.5180   60.0580   19.5280 N.3   224  ASP224     -0.1239
    178  CA        35.2180   60.3940   18.9450 C.3   224  ASP224      0.1674
    179  C         34.7940   61.8260   19.2560 C.2   224  ASP224      0.2266
    180  O         33.6600   62.0720   19.6710 O.2   224  ASP224     -0.2867
    181  CB        34.1340   59.4270   19.4330 C.3   224  ASP224      0.1410
    182  CG        34.3510   58.0130   18.9400 C.2   224  ASP224      0.3668
    183  OD1       34.6660   57.8400   17.7440 O.co2 224  ASP224     -0.2456
    184  OD2       34.1950   57.0700   19.7410 O.co2 224  ASP224     -0.2456
@<TRIPOS>BOND
     1   153   152    2
     2   156   155    1
     3   156   150    1
     4   114   113    2
     5   152   151    1
     6   154   155    1
     7   154   151    1
     8   150   151    1
     9   113   112    1
    10   144   143    2
    11   115   112    1
    12   115   116    1
    13   143   142    1
    14   112   111    1
    15   116   117    1
    16   142   141    1
    17   142   145    1
    18    49    48    1
    19    48    45    1
    20   117   119   am
    21   117   118    2
    22    99   101   ar
    23    99    97   ar
    24   145   146    1
    25    47    46    2
    26   101   100   ar
    27   123   122    2
    28   146   147    1
    29    45    46    1
    30    45    44    1
    31    46    50   am
    32   122   121    1
    33    97    96   ar
    34   134   133    2
    35   129   128    1
    36    54    51    1
    37    54    55    1
    38   149   147   am
    39    50    51    1
    40   100    98   ar
    41    51    52    1
    42   147   148    2
    43   133   132    1
    44    96    98   ar
    45    96    95    1
    46    44    35   am
    47   126   127    1
    48   126   125    1
    49   128   127    2
    50   128   130    1
    51   121   120    1
    52   121   124    1
    53    95    92    1
    54    52    53    2
    55    92    93    1
    56    92    91    1
    57    36    35    2
    58    94    93    2
    59    35    34    1
    60   125   124    1
    61    89    88    2
    62   132   135    1
    63   132   131    1
    64    28    27    2
    65    90    87    1
    66    91    88   am
    67    88    87    1
    68   135   136    1
    69    61    60    1
    70    34    33    1
    71    34    37    1
    72   183   182   ar
    73    87    86    1
    74    27    33   am
    75    27    26    1
    76    31    30    2
    77    29    30    1
    78    29    26    1
    79   136   138   ar
    80   136   137   ar
    81    43    41    1
    82    37    38    1
    83   138   140   ar
    84   105   104    2
    85    30    32   am
    86    60    57    1
    87   104   103    1
    88    26    25    1
    89    56    57    1
    90    40    41    2
    91    40    39    1
    92   182   181    1
    93   182   184   ar
    94   178   179    1
    95   178   181    1
    96   178   177    1
    97    86    81   am
    98    41    42    1
    99   179   180    2
   100    57    58    1
   101    39    38    1
   102   137   139   ar
   103   140   139   ar
   104    82    81    2
   105   106   103    1
   106   106   107    1
   107   103   102    1
   108    81    80    1
   109   110   109    1
   110    58    59    2
   111   107   108    1
   112   108   109    1
   113    83    80    1
   114    83    84    1
   115    80    79    1
   116   175   174   ar
   117   160   159    2
   118    19    18    2
   119    79    85    1
   120   174   173    1
   121   174   176   ar
   122    84    85    1
   123    18    17    1
   124   173   172    1
   125    20    17    1
   126    20    21    1
   127    23    24    1
   128    23    22    1
   129   163   165   ar
   130   163   162   ar
   131     6     5    1
   132   165   167   ar
   133   159   158    1
   134   172   169    1
   135   161   162    1
   136   161   158    1
   137   157   158    1
   138   171   170    2
   139    17    16    1
   140   168   169    1
   141   162   164   ar
   142    21    22    1
   143     5     2    1
   144   169   170    1
   145   167   166   ar
   146    77    76    2
   147   164   166   ar
   148    69    67   ar
   149    76    75    1
   150    76    78   am
   151    75    74    1
   152     2     1    1
   153     2     3    1
   154    15    14    1
   155    67    66    1
   156    67    68   ar
   157     3     4    2
   158    66    63    1
   159    72    73    2
   160    72    71    1
   161    14    13    1
   162    74    71    1
   163    71    70    1
   164    13    12    1
   165    63    64    1
   166    63    62    1
   167    64    65    2
   168    12    11    1
   169    11     8    1
   170    10     9    2
   171     9     8    1
   172     8     7    1
