@<TRIPOS>MOLECULE
tmp/1jd0A00.pdb
 129 123 0 0 0
SMALL
GASTEIGER

@<TRIPOS>ATOM
      1  N         28.4100    8.2500   25.3310 N.3    86  THR86      -0.1203
      2  CA        27.8410    9.2930   26.1720 C.3    86  THR86       0.1994
      3  C         27.3910    8.7030   27.5090 C.2    86  THR86       0.2617
      4  O         27.5440    9.3360   28.5530 O.2    86  THR86      -0.2717
      5  CB        26.6570   10.0110   25.4750 C.3    86  THR86       0.1784
      6  OG1       26.1010   10.9890   26.3630 O.3    86  THR86      -0.2211
      7  CG2       25.5800    9.0190   25.0690 C.3    86  THR86       0.0376
      8  N         26.8580    7.4830   27.4840 N.am   87  GLN87      -0.1979
      9  CA        26.4060    6.8380   28.7140 C.3    87  GLN87       0.1601
     10  C         25.9940    5.3910   28.4980 C.2    87  GLN87       0.2287
     11  O         25.8440    4.9340   27.3660 O.2    87  GLN87      -0.2864
     12  CB        25.1820    7.5670   29.2860 C.3    87  GLN87       0.0394
     13  CG        23.9490    7.4750   28.3720 C.3    87  GLN87       0.0908
     14  CD        22.6310    7.6700   29.1080 C.2    87  GLN87       0.2608
     15  OE1       22.0100    6.7090   29.5680 O.2    87  GLN87      -0.2717
     16  NE2       22.1980    8.9200   29.2230 N.am   87  GLN87      -0.0878
     17  N         23.3060    2.3530   30.5220 N.3    89  HIS89      -0.1241
     18  CA        22.2750    2.1830   31.5400 C.3    89  HIS89       0.1621
     19  C         21.6450    0.8120   31.3450 C.2    89  HIS89       0.2264
     20  O         21.9940    0.0970   30.4080 O.2    89  HIS89      -0.2867
     21  CB        21.2020    3.2660   31.4180 C.3    89  HIS89       0.0745
     22  CG        20.5160    3.2790   30.0900 C.ar   89  HIS89       0.0817
     23  ND1       20.9460    4.0610   29.0400 N.ar   89  HIS89      -0.2268
     24  CD2       19.4790    2.5480   29.6170 C.ar   89  HIS89       0.1154
     25  CE1       20.2060    3.8070   27.9750 C.ar   89  HIS89       0.1986
     26  NE2       19.3100    2.8910   28.2990 N.ar   89  HIS89      -0.2212
     27  N         17.9760   -1.9920   31.8610 N.3    91  HIS91      -0.1241
     28  CA        16.5300   -2.1990   31.8920 C.3    91  HIS91       0.1621
     29  C         16.3440   -3.5700   32.5200 C.2    91  HIS91       0.2264
     30  O         17.0750   -4.5060   32.1830 O.2    91  HIS91      -0.2867
     31  CB        15.9630   -2.2050   30.4720 C.3    91  HIS91       0.0745
     32  CG        16.1470   -0.9100   29.7470 C.ar   91  HIS91       0.0817
     33  ND1       15.2500    0.1330   29.8430 N.ar   91  HIS91      -0.2268
     34  CD2       17.1430   -0.4780   28.9390 C.ar   91  HIS91       0.1154
     35  CE1       15.6860    1.1520   29.1230 C.ar   91  HIS91       0.1986
     36  NE2       16.8320    0.8070   28.5650 N.ar   91  HIS91      -0.2212
     37  N         22.4790   -1.0560   27.7810 N.3   115  HIS115     -0.1241
     38  CA        22.5620   -0.1930   26.6090 C.3   115  HIS115      0.1621
     39  C         23.7470    0.7500   26.7380 C.2   115  HIS115      0.2264
     40  O         23.8600    1.4770   27.7210 O.2   115  HIS115     -0.2867
     41  CB        21.2880    0.6310   26.4480 C.3   115  HIS115      0.0745
     42  CG        20.1160   -0.1790   26.0000 C.ar  115  HIS115      0.0817
     43  ND1       18.8100    0.2230   26.1850 N.ar  115  HIS115     -0.2268
     44  CD2       20.0570   -1.3750   25.3700 C.ar  115  HIS115      0.1154
     45  CE1       17.9980   -0.6920   25.6880 C.ar  115  HIS115      0.1986
     46  NE2       18.7290   -1.6720   25.1880 N.ar  115  HIS115     -0.2212
     47  N         25.1280    3.7910   24.9740 N.3   117  VAL117     -0.1245
     48  CA        24.7300    4.8250   24.0200 C.3   117  VAL117      0.1561
     49  C         25.8800    5.6490   23.4490 C.2   117  VAL117      0.2260
     50  O         26.7590    6.0900   24.1870 O.2   117  VAL117     -0.2867
     51  CB        23.7150    5.7960   24.6790 C.3   117  VAL117      0.0252
     52  CG1       23.1160    6.7160   23.6310 C.3   117  VAL117      0.0019
     53  CG2       22.6210    5.0070   25.3960 C.3   117  VAL117      0.0019
     54  N         25.5720   14.3340   22.4090 N.3   127  ALA127     -0.1245
     55  CA        24.4230   13.4370   22.3430 C.3   127  ALA127      0.1562
     56  C         23.0980   14.1880   22.3140 C.2   127  ALA127      0.2260
     57  O         22.1690   13.7910   21.6110 O.2   127  ALA127     -0.2867
     58  CB        24.4490   12.4740   23.5250 C.3   127  ALA127      0.0290
     59  N         20.6060   13.4480   19.2810 N.3   131  SER131     -0.1217
     60  CA        19.4320   12.6330   19.5900 C.3   131  SER131      0.1889
     61  C         18.2070   12.7700   18.6870 C.2   131  SER131      0.2288
     62  O         17.5130   11.7850   18.4430 O.2   131  SER131     -0.2866
     63  CB        19.0090   12.8560   21.0460 C.3   131  SER131      0.2089
     64  OG        18.5060   14.1640   21.2470 O.3   131  SER131     -0.2183
     65  N         22.3270    8.6880   16.5870 N.3   137  LEU137     -0.1245
     66  CA        22.7320    7.7690   17.6440 C.3   137  LEU137      0.1561
     67  C         22.9840    6.3280   17.2220 C.2   137  LEU137      0.2260
     68  O         22.4600    5.8530   16.2170 O.2   137  LEU137     -0.2867
     69  CB        21.6650    7.7620   18.7430 C.3   137  LEU137      0.0270
     70  CG        21.2590    9.1040   19.3580 C.3   137  LEU137      0.0019
     71  CD1       20.0900    8.8900   20.3100 C.3   137  LEU137      0.0001
     72  CD2       22.4470    9.7150   20.0880 C.3   137  LEU137      0.0001
     73  N         23.3320    2.6190   19.4630 N.3   139  VAL139     -0.1245
     74  CA        23.3040    1.9860   20.7750 C.3   139  VAL139      0.1561
     75  C         23.6880    0.5190   20.6690 C.2   139  VAL139      0.2260
     76  O         23.2680   -0.1730   19.7380 O.2   139  VAL139     -0.2867
     77  CB        21.8950    2.0710   21.4240 C.3   139  VAL139      0.0252
     78  CG1       21.9040    1.3830   22.7870 C.3   139  VAL139      0.0019
     79  CG2       21.4700    3.5230   21.5800 C.3   139  VAL139      0.0019
     80  N         14.8220    5.5210   20.2060 N.3   195  LEU195     -0.1231
     81  CA        15.1250    5.5160   21.6220 C.3   195  LEU195      0.1693
     82  C         13.9300    4.7280   22.1640 C.2   195  LEU195      0.2593
     83  O         12.8170    4.8500   21.6430 O.2   195  LEU195     -0.2718
     84  CB        15.0970    6.9400   22.1800 C.3   195  LEU195      0.0284
     85  CG        16.2230    7.8850   21.7620 C.3   195  LEU195      0.0019
     86  CD1       15.9290    9.2790   22.2990 C.3   195  LEU195      0.0001
     87  CD2       17.5520    7.3750   22.2970 C.3   195  LEU195      0.0001
     88  N         14.1440    3.9170   23.1920 N.am  196  THR196     -0.1939
     89  CA        13.0470    3.1340   23.7520 C.3   196  THR196      0.2028
     90  C         12.3470    3.8700   24.8860 C.2   196  THR196      0.2643
     91  O         11.5010    3.3080   25.5750 O.2   196  THR196     -0.2714
     92  CB        13.5310    1.7840   24.2790 C.3   196  THR196      0.1808
     93  OG1       14.4380    2.0030   25.3620 O.3   196  THR196     -0.2208
     94  CG2       14.2260    1.0020   23.1780 C.3   196  THR196      0.0379
     95  N         12.7160    5.1310   25.0820 N.am  197  THR197     -0.1937
     96  CA        12.1010    5.9590   26.1100 C.3   197  THR197      0.2013
     97  C         11.7900    7.3020   25.4700 C.2   197  THR197      0.2484
     98  O         12.4050    7.6730   24.4700 O.2   197  THR197     -0.2729
     99  CB        13.0480    6.2140   27.2960 C.3   197  THR197      0.1807
    100  OG1       14.2170    6.9070   26.8360 O.3   197  THR197     -0.2208
    101  CG2       13.4580    4.9010   27.9450 C.3   197  THR197      0.0379
    102  N         10.8180    8.0400   26.0250 N.am  198  PRO198     -0.2726
    103  CA        10.4790    9.3480   25.4560 C.3   198  PRO198      0.1402
    104  C         11.7580   10.1710   25.3240 C.2   198  PRO198      0.2269
    105  O         12.6180   10.1230   26.2090 O.2   198  PRO198     -0.2865
    106  CB         9.5220    9.9270   26.4920 C.3   198  PRO198      0.0296
    107  CG         8.8050    8.7060   26.9840 C.3   198  PRO198      0.0237
    108  CD         9.9270    7.7060   27.1510 C.3   198  PRO198      0.0939
    109  N         18.1010    5.9710   16.1080 N.3   204  VAL204     -0.1245
    110  CA        19.0690    5.0090   16.6190 C.3   204  VAL204      0.1561
    111  C         19.4040    3.8270   15.7160 C.2   204  VAL204      0.2260
    112  O         18.5120    3.1200   15.2360 O.2   204  VAL204     -0.2867
    113  CB        18.5910    4.4230   17.9760 C.3   204  VAL204      0.0252
    114  CG1       19.6300    3.4470   18.5220 C.3   204  VAL204      0.0019
    115  CG2       18.3360    5.5370   18.9770 C.3   204  VAL204      0.0019
    116  N         20.5860    0.4040   15.8640 N.3   206  TRP206     -0.1241
    117  CA        20.7260   -0.6240   16.8850 C.3   206  TRP206      0.1605
    118  C         21.6190   -1.7960   16.5240 C.2   206  TRP206      0.2264
    119  O         21.5920   -2.3060   15.4030 O.2   206  TRP206     -0.2867
    120  CB        19.3570   -1.1890   17.2760 C.3   206  TRP206      0.0550
    121  CG        18.5530   -0.3080   18.1690 C.ar  206  TRP206      0.0003
    122  CD1       17.6030    0.5990   17.7940 C.ar  206  TRP206      0.0946
    123  CD2       18.6550   -0.2200   19.5920 C.ar  206  TRP206      0.0152
    124  NE1       17.1080    1.2500   18.8980 N.ar  206  TRP206     -0.2442
    125  CE2       17.7380    0.7670   20.0160 C.ar  206  TRP206      0.0810
    126  CE3       19.4340   -0.8800   20.5540 C.ar  206  TRP206      0.0012
    127  CZ2       17.5780    1.1160   21.3640 C.ar  206  TRP206      0.0191
    128  CZ3       19.2740   -0.5340   21.8960 C.ar  206  TRP206      0.0001
    129  CH2       18.3530    0.4560   22.2850 C.ar  206  TRP206      0.0015
@<TRIPOS>BOND
     1   112   111    2
     2   119   118    2
     3   111   110    1
     4   116   117    1
     5   109   110    1
     6    68    67    2
     7   118   117    1
     8    65    66    1
     9   110   113    1
    10   117   120    1
    11    67    66    1
    12   120   121    1
    13    66    69    1
    14   122   121   ar
    15   122   124   ar
    16   113   114    1
    17   113   115    1
    18   121   123   ar
    19    62    61    2
    20    61    60    1
    21    69    70    1
    22   124   125   ar
    23    59    60    1
    24    70    72    1
    25    70    71    1
    26    73    74    1
    27    60    63    1
    28   123   125   ar
    29   123   126   ar
    30    76    75    2
    31   125   127   ar
    32    80    81    1
    33   126   128   ar
    34    75    74    1
    35    74    77    1
    36    63    64    1
    37   127   129   ar
    38    77    79    1
    39    77    78    1
    40    57    56    2
    41    81    82    1
    42    81    84    1
    43    83    82    2
    44    85    84    1
    45    85    87    1
    46    85    86    1
    47   128   129   ar
    48    82    88   am
    49    56    55    1
    50    55    54    1
    51    55    58    1
    52    94    92    1
    53    88    89    1
    54    49    48    1
    55    49    50    2
    56    52    51    1
    57    89    92    1
    58    89    90    1
    59    48    51    1
    60    48    47    1
    61    92    93    1
    62    98    97    2
    63    51    53    1
    64    90    95   am
    65    90    91    2
    66     7     5    1
    67    95    96    1
    68    46    44   ar
    69    46    45   ar
    70   104   103    1
    71   104   105    2
    72     1     2    1
    73    44    42   ar
    74   103   102    1
    75   103   106    1
    76    97   102   am
    77    97    96    1
    78     5     2    1
    79     5     6    1
    80    45    43   ar
    81    42    43   ar
    82    42    41    1
    83   102   108    1
    84    96    99    1
    85     2     3    1
    86    41    38    1
    87   106   107    1
    88    38    39    1
    89    38    37    1
    90    39    40    2
    91   100    99    1
    92   107   108    1
    93    99   101    1
    94    11    10    2
    95     8     3   am
    96     8     9    1
    97     3     4    2
    98    25    26   ar
    99    25    23   ar
   100    26    24   ar
   101    13    14    1
   102    13    12    1
   103    10     9    1
   104    36    34   ar
   105    36    35   ar
   106     9    12    1
   107    34    32   ar
   108    23    22   ar
   109    14    16   am
   110    14    15    2
   111    35    33   ar
   112    24    22   ar
   113    32    33   ar
   114    32    31    1
   115    22    21    1
   116    20    19    2
   117    31    28    1
   118    17    18    1
   119    19    18    1
   120    21    18    1
   121    27    28    1
   122    28    29    1
   123    30    29    2
