@<TRIPOS>MOLECULE
tmp/1jd2H00.pdb
 125 117 0 0 0
SMALL
GASTEIGER

@<TRIPOS>ATOM
      1  N         64.6820 -139.9590   44.5350 N.3     1  THR1       -0.1218
      2  CA        65.1640 -138.7610   45.2950 C.3     1  THR1        0.1862
      3  C         65.1960 -139.0130   46.7890 C.2     1  THR1        0.2287
      4  O         64.2500 -139.5640   47.3530 O.2     1  THR1       -0.2866
      5  CB        64.2640 -137.5260   45.0680 C.3     1  THR1        0.1770
      6  OG1       64.3960 -137.0480   43.7240 O.3     1  THR1       -0.2211
      7  CG2       64.6690 -136.4350   45.9780 C.3     1  THR1        0.0375
      8  N         70.4350 -136.7790   41.6460 N.3    19  ARG19      -0.1231
      9  CA        69.9360 -137.5180   40.4950 C.3    19  ARG19       0.1694
     10  C         68.5480 -136.9990   40.2020 C.2    19  ARG19       0.2593
     11  O         67.7220 -136.8920   41.0920 O.2    19  ARG19      -0.2718
     12  CB        69.9020 -139.0240   40.8220 C.3    19  ARG19       0.0321
     13  CG        69.1640 -139.9300   39.8530 C.3    19  ARG19       0.0489
     14  CD        69.3060 -141.3860   40.2660 C.3    19  ARG19       0.2205
     15  NE        70.6500 -141.9010   40.0000 N.pl3  19  ARG19      -0.0865
     16  CZ        70.9680 -143.1950   39.9570 C.cat  19  ARG19       0.5346
     17  NH1       70.0440 -144.1290   40.1760 N.pl3  19  ARG19       0.1354
     18  NH2       72.2140 -143.5590   39.6810 N.pl3  19  ARG19       0.1354
     19  N         68.3360 -136.6510   38.9450 N.am   20  SER20      -0.1938
     20  CA        67.0880 -136.1240   38.4340 C.3    20  SER20       0.2055
     21  C         66.7580 -137.1390   37.3420 C.2    20  SER20       0.2644
     22  O         67.6420 -137.5280   36.5910 O.2    20  SER20      -0.2714
     23  CB        67.4070 -134.7640   37.8370 C.3    20  SER20       0.2130
     24  OG        66.3120 -134.2340   37.1490 O.3    20  SER20      -0.2179
     25  N         65.5190 -137.5970   37.2440 N.am   21  THR21      -0.1936
     26  CA        65.2150 -138.5920   36.2350 C.3    21  THR21       0.2028
     27  C         63.8780 -138.4860   35.5490 C.2    21  THR21       0.2642
     28  O         62.8600 -138.1500   36.1750 O.2    21  THR21      -0.2714
     29  CB        65.2410 -139.9890   36.8320 C.3    21  THR21       0.1808
     30  OG1       64.4770 -140.0270   38.0480 O.3    21  THR21      -0.2208
     31  CG2       66.6180 -140.4070   37.0910 C.3    21  THR21       0.0379
     32  N         63.8670 -138.8500   34.2690 N.am   22  GLN22      -0.1963
     33  CA        62.6350 -138.8740   33.4890 C.3    22  GLN22       0.1733
     34  C         62.3520 -140.3650   33.4060 C.2    22  GLN22       0.2616
     35  O         62.8790 -141.0670   32.5570 O.2    22  GLN22      -0.2715
     36  CB        62.8350 -138.2680   32.0910 C.3    22  GLN22       0.0408
     37  CG        62.0820 -136.9310   31.8630 C.3    22  GLN22       0.0908
     38  CD        62.6410 -136.0830   30.6960 C.2    22  GLN22       0.2608
     39  OE1       61.9100 -135.2880   30.0870 O.2    22  GLN22      -0.2717
     40  NE2       63.9410 -136.2360   30.3980 N.am   22  GLN22      -0.0878
     41  N         61.6330 -140.8810   34.3870 N.am   23  GLY23      -0.1955
     42  CA        61.3420 -142.2910   34.3600 C.3    23  GLY23       0.1869
     43  C         62.5410 -143.0850   34.8270 C.2    23  GLY23       0.2309
     44  O         62.9990 -142.8560   35.9370 O.2    23  GLY23      -0.2863
     45  N         68.1390 -137.8600   33.9700 N.3    27  ALA27      -0.1231
     46  CA        68.0720 -136.6090   33.2510 C.3    27  ALA27       0.1694
     47  C         69.2140 -135.6540   33.5660 C.2    27  ALA27       0.2592
     48  O         69.7410 -135.0300   32.6660 O.2    27  ALA27      -0.2718
     49  CB        66.7700 -135.9580   33.5050 C.3    27  ALA27       0.0304
     50  N         69.5880 -135.5220   34.8350 N.am   28  ASP28      -0.1974
     51  CA        70.6910 -134.6320   35.2250 C.3    28  ASP28       0.1709
     52  C         71.5220 -135.3690   36.2670 C.2    28  ASP28       0.2293
     53  O         71.0430 -135.6810   37.3520 O.2    28  ASP28      -0.2864
     54  CB        70.1490 -133.3240   35.8170 C.3    28  ASP28       0.1436
     55  CG        71.2280 -132.2320   35.9690 C.2    28  ASP28       0.3671
     56  OD1       70.8560 -131.0410   36.0340 O.co2  28  ASP28      -0.2456
     57  OD2       72.4370 -132.5340   36.0360 O.co2  28  ASP28      -0.2456
     58  N         71.8830 -132.5220   39.6600 N.3    31  CYS31      -0.1235
     59  CA        71.0280 -131.3710   39.6860 C.3    31  CYS31       0.1677
     60  C         70.9360 -130.9580   41.1320 C.2    31  CYS31       0.2270
     61  O         71.0650 -131.8030   41.9950 O.2    31  CYS31      -0.2867
     62  CB        69.6610 -131.7480   39.1710 C.3    31  CYS31       0.0956
     63  SG        68.5640 -132.2250   40.4960 S.3    31  CYS31      -0.0801
     64  N         69.0970 -129.9190   44.4800 N.3    33  LYS33      -0.1245
     65  CA        67.8050 -130.0950   45.1720 C.3    33  LYS33       0.1561
     66  C         67.5940 -129.2590   46.4290 C.2    33  LYS33       0.2260
     67  O         66.5940 -129.4200   47.1370 O.2    33  LYS33      -0.2867
     68  CB        67.5560 -131.5770   45.5010 C.3    33  LYS33       0.0271
     69  CG        67.5340 -132.4930   44.2660 C.3    33  LYS33       0.0035
     70  CD        67.0400 -133.9070   44.5520 C.3    33  LYS33       0.0206
     71  CE        67.4340 -134.8590   43.4090 C.3    33  LYS33       0.1093
     72  NZ        67.0610 -136.2930   43.6340 N.3    33  LYS33      -0.1314
     73  N         63.8770 -130.2230   48.1640 N.3    45  GLY45      -0.1210
     74  CA        62.6930 -130.7740   47.5270 C.3    45  GLY45       0.1956
     75  C         62.7220 -132.0190   46.6470 C.2    45  GLY45       0.2612
     76  O         63.6640 -132.2660   45.8790 O.2    45  GLY45      -0.2717
     77  N         61.6430 -132.7990   46.7230 N.am   46  ALA46      -0.1965
     78  CA        61.5340 -134.0030   45.9270 C.3    46  ALA46       0.1728
     79  C         60.1640 -134.0260   45.3440 C.2    46  ALA46       0.2617
     80  O         59.2290 -133.5110   45.9420 O.2    46  ALA46      -0.2715
     81  CB        61.7390 -135.2110   46.7710 C.3    46  ALA46       0.0334
     82  N         60.0280 -134.6780   44.2060 N.am   47  GLY47      -0.1940
     83  CA        58.7430 -134.7300   43.5610 C.3    47  GLY47       0.2014
     84  C         58.9880 -134.2930   42.1470 C.2    47  GLY47       0.2640
     85  O         60.0120 -134.6500   41.5600 O.2    47  GLY47      -0.2714
     86  N         58.0930 -133.4750   41.6180 N.am   48  THR48      -0.1936
     87  CA        58.2450 -132.9870   40.2670 C.3    48  THR48       0.2028
     88  C         59.3550 -131.9510   40.3120 C.2    48  THR48       0.2642
     89  O         59.2320 -130.9240   40.9660 O.2    48  THR48      -0.2714
     90  CB        56.9470 -132.3490   39.7530 C.3    48  THR48       0.1808
     91  OG1       55.8200 -133.1350   40.1620 O.3    48  THR48      -0.2208
     92  CG2       56.9640 -132.2850   38.2340 C.3    48  THR48       0.0379
     93  N         60.4620 -132.2290   39.6490 N.am   49  ALA49      -0.1963
     94  CA        61.5880 -131.3120   39.6510 C.3    49  ALA49       0.1728
     95  C         61.2080 -129.8400   39.5140 C.2    49  ALA49       0.2616
     96  O         61.5970 -129.0050   40.3410 O.2    49  ALA49      -0.2715
     97  CB        62.5510 -131.6910   38.5740 C.3    49  ALA49       0.0334
     98  N         60.4450 -129.5170   38.4760 N.am   50  ALA50      -0.1977
     99  CA        60.0360 -128.1480   38.2450 C.3    50  ALA50       0.1597
    100  C         59.2040 -127.5600   39.3770 C.2    50  ALA50       0.2287
    101  O         59.4600 -126.4520   39.7940 O.2    50  ALA50      -0.2864
    102  CB        59.3130 -128.0340   36.9640 C.3    50  ALA50       0.0319
    103  N         59.2980 -128.1960   42.5370 N.3    52  THR52      -0.1218
    104  CA        60.1410 -127.8890   43.6820 C.3    52  THR52       0.1862
    105  C         60.8640 -126.5670   43.4820 C.2    52  THR52       0.2287
    106  O         60.8900 -125.7570   44.3840 O.2    52  THR52      -0.2866
    107  CB        61.1450 -129.0120   44.0300 C.3    52  THR52       0.1770
    108  OG1       62.0380 -129.2520   42.9380 O.3    52  THR52      -0.2211
    109  CG2       60.4140 -130.2680   44.3780 C.3    52  THR52       0.0375
    110  N         57.2830 -132.0620   47.4560 N.3    97  TYR97      -0.1241
    111  CA        57.4080 -132.6700   48.7690 C.3    97  TYR97       0.1605
    112  C         58.6530 -131.9770   49.2790 C.2    97  TYR97       0.2264
    113  O         59.7120 -132.1090   48.6830 O.2    97  TYR97      -0.2867
    114  CB        57.5840 -134.1790   48.6130 C.3    97  TYR97       0.0534
    115  CG        56.3190 -134.8600   48.1330 C.ar   97  TYR97      -0.0201
    116  CD1       55.2770 -135.1240   49.0050 C.ar   97  TYR97      -0.0009
    117  CD2       56.1420 -135.1590   46.7990 C.ar   97  TYR97      -0.0009
    118  CE1       54.1080 -135.6520   48.5630 C.ar   97  TYR97       0.0417
    119  CE2       54.9680 -135.6870   46.3490 C.ar   97  TYR97       0.0417
    120  CZ        53.9580 -135.9300   47.2310 C.ar   97  TYR97       0.1957
    121  OH        52.7740 -136.4480   46.7720 O.3    97  TYR97      -0.2866
    122  N         66.0200 -144.5970   42.4930 N.3   168  GLY168     -0.1225
    123  CA        65.5690 -143.2440   42.2450 C.3   168  GLY168      0.1811
    124  C         66.4700 -142.1410   42.7560 C.2   168  GLY168      0.2280
    125  O         66.1870 -140.9660   42.5820 O.2   168  GLY168     -0.2866
@<TRIPOS>BOND
     1    39    38    2
     2    40    38   am
     3    38    37    1
     4    37    36    1
     5    36    33    1
     6    35    34    2
     7    48    47    2
     8    46    49    1
     9    46    47    1
    10    46    45    1
    11    34    33    1
    12    34    41   am
    13    33    32    1
    14    47    50   am
    15    32    27   am
    16    42    41    1
    17    42    43    1
    18    43    44    2
    19    50    51    1
    20    51    54    1
    21    51    52    1
    22    27    28    2
    23    27    26    1
    24    54    55    1
    25    55    56   ar
    26    55    57   ar
    27    26    29    1
    28    26    25    1
    29    52    53    2
    30    22    21    2
    31    29    31    1
    32    29    30    1
    33   102    99    1
    34    24    23    1
    35    25    21   am
    36    21    20    1
    37    23    20    1
    38    92    90    1
    39    99    98    1
    40    99   100    1
    41    20    19    1
    42    98    95   am
    43    97    94    1
    44    19    10   am
    45    62    59    1
    46    62    63    1
    47   100   101    2
    48    95    94    1
    49    95    96    2
    50    93    94    1
    51    93    88   am
    52    58    59    1
    53    18    16    1
    54    59    60    1
    55    90    91    1
    56    90    87    1
    57    13    14    1
    58    13    12    1
    59    16    15    2
    60    16    17    1
    61    15    14    1
    62    10     9    1
    63    10    11    2
    64    87    88    1
    65    87    86    1
    66    88    89    2
    67     9    12    1
    68     9     8    1
    69    60    61    2
    70    85    84    2
    71    86    84   am
    72    84    83    1
    73   123   122    1
    74   123   124    1
    75   103   104    1
    76   125   124    2
    77   108   107    1
    78    71    72    1
    79    71    70    1
    80   105   104    1
    81   105   106    2
    82    83    82    1
    83   104   107    1
    84     6     5    1
    85   107   109    1
    86    82    79   am
    87    69    70    1
    88    69    68    1
    89    64    65    1
    90     1     2    1
    91     5     2    1
    92     5     7    1
    93    65    68    1
    94    65    66    1
    95     2     3    1
    96    79    78    1
    97    79    80    2
    98    76    75    2
    99    78    77    1
   100    78    81    1
   101   119   117   ar
   102   119   120   ar
   103    66    67    2
   104    75    77   am
   105    75    74    1
   106   121   120    1
   107     3     4    2
   108   117   115   ar
   109   120   118   ar
   110   110   111    1
   111    74    73    1
   112   115   114    1
   113   115   116   ar
   114   118   116   ar
   115   114   111    1
   116   113   112    2
   117   111   112    1
