@<TRIPOS>MOLECULE
tmp/1jd2I00.pdb
 85 80 0 0 0
SMALL
GASTEIGER

@<TRIPOS>ATOM
      1  N         50.6120 -139.7910   21.7970 N.3     2  ASP2       -0.1239
      2  CA        51.6380 -139.2590   22.6780 C.3     2  ASP2        0.1674
      3  C         52.0580 -138.0490   21.8680 C.2     2  ASP2        0.2266
      4  O         52.7540 -138.1950   20.8670 O.2     2  ASP2       -0.2867
      5  CB        52.8020 -140.2390   22.8390 C.3     2  ASP2        0.1410
      6  CG        53.8540 -139.7410   23.8180 C.2     2  ASP2        0.3668
      7  OD1       54.6490 -140.5800   24.2940 O.co2   2  ASP2       -0.2456
      8  OD2       53.8980 -138.5230   24.1180 O.co2   2  ASP2       -0.2456
      9  N         54.1720 -135.9270   22.1960 N.3     4  SER4       -0.1217
     10  CA        55.5990 -135.8690   22.0130 C.3     4  SER4        0.1889
     11  C         56.0930 -136.8230   20.9300 C.2     4  SER4        0.2288
     12  O         57.2020 -136.6720   20.4370 O.2     4  SER4       -0.2866
     13  CB        56.2760 -136.1820   23.3320 C.3     4  SER4        0.2089
     14  OG        55.3400 -136.0860   24.3960 O.3     4  SER4       -0.2183
     15  N         52.2070 -124.4950   33.2280 N.3    98  ARG98      -0.1245
     16  CA        52.3810 -125.7440   33.9340 C.3    98  ARG98       0.1563
     17  C         51.2420 -126.7460   33.8070 C.2    98  ARG98       0.2260
     18  O         51.4930 -127.9400   33.7940 O.2    98  ARG98      -0.2867
     19  CB        52.6390 -125.4650   35.4090 C.3    98  ARG98       0.0307
     20  CG        52.5940 -126.6880   36.3530 C.3    98  ARG98       0.0489
     21  CD        53.6630 -127.7540   36.0360 C.3    98  ARG98       0.2205
     22  NE        53.7300 -128.7670   37.0880 N.pl3  98  ARG98      -0.0865
     23  CZ        52.8280 -129.7260   37.2870 C.cat  98  ARG98       0.5346
     24  NH1       52.9760 -130.5800   38.2750 N.pl3  98  ARG98       0.1354
     25  NH2       51.7940 -129.8670   36.4880 N.pl3  98  ARG98       0.1354
     26  N         54.1060 -129.3310   24.3110 N.3   103  PHE103     -0.1241
     27  CA        54.7630 -130.6280   24.2940 C.3   103  PHE103      0.1605
     28  C         56.0600 -130.5900   23.5820 C.2   103  PHE103      0.2264
     29  O         56.1540 -131.0850   22.4620 O.2   103  PHE103     -0.2867
     30  CB        53.8520 -131.6630   23.6660 C.3   103  PHE103      0.0534
     31  CG        52.6060 -131.8690   24.4330 C.ar  103  PHE103     -0.0203
     32  CD1       52.6080 -132.6270   25.5740 C.ar  103  PHE103     -0.0042
     33  CD2       51.4570 -131.2340   24.0720 C.ar  103  PHE103     -0.0042
     34  CE1       51.4740 -132.7470   26.3470 C.ar  103  PHE103     -0.0003
     35  CE2       50.3190 -131.3500   24.8420 C.ar  103  PHE103     -0.0003
     36  CZ        50.3300 -132.1020   25.9810 C.ar  103  PHE103     -0.0000
     37  N         65.6140 -128.8850   29.0290 N.3   123  PHE123     -0.1227
     38  CA        64.4620 -128.8460   29.9210 C.3   123  PHE123      0.1736
     39  C         63.4180 -129.9110   29.6200 C.2   123  PHE123      0.2595
     40  O         63.3950 -130.4590   28.5280 O.2   123  PHE123     -0.2718
     41  CB        63.7440 -127.5040   29.8080 C.3   123  PHE123      0.0547
     42  CG        64.5830 -126.3700   29.2800 C.ar  123  PHE123     -0.0202
     43  CD1       64.7300 -125.2190   30.0170 C.ar  123  PHE123     -0.0042
     44  CD2       65.1780 -126.4310   28.0380 C.ar  123  PHE123     -0.0042
     45  CE1       65.4490 -124.1520   29.5410 C.ar  123  PHE123     -0.0003
     46  CE2       65.9050 -125.3610   27.5520 C.ar  123  PHE123     -0.0003
     47  CZ        66.0360 -124.2160   28.3080 C.ar  123  PHE123     -0.0000
     48  N         62.5750 -130.2280   30.5960 N.am  124  ASP124     -0.1960
     49  CA        61.5080 -131.1880   30.3560 C.3   124  ASP124      0.1840
     50  C         60.3590 -130.3210   29.9190 C.2   124  ASP124      0.2622
     51  O         60.4490 -129.1180   30.0440 O.2   124  ASP124     -0.2715
     52  CB        61.1620 -132.0550   31.5840 C.3   124  ASP124      0.1450
     53  CG        60.6140 -131.2650   32.7780 C.2   124  ASP124      0.3671
     54  OD1       60.6780 -131.7960   33.9020 O.co2 124  ASP124     -0.2456
     55  OD2       60.1110 -130.1490   32.6240 O.co2 124  ASP124     -0.2456
     56  N         59.2390 -130.8930   29.5230 N.am  125  LEU125     -0.1963
     57  CA        58.1610 -130.0440   29.0530 C.3   125  LEU125      0.1728
     58  C         57.6470 -128.9510   29.9860 C.2   125  LEU125      0.2616
     59  O         56.9490 -128.0650   29.5290 O.2   125  LEU125     -0.2715
     60  CB        57.0020 -130.8610   28.4950 C.3   125  LEU125      0.0311
     61  CG        56.0500 -131.4810   29.4770 C.3   125  LEU125      0.0022
     62  CD1       55.0050 -132.2110   28.7110 C.3   125  LEU125      0.0001
     63  CD2       56.8180 -132.4240   30.3590 C.3   125  LEU125      0.0001
     64  N         57.9630 -128.9690   31.2750 N.am  126  ILE126     -0.1977
     65  CA        57.4500 -127.8950   32.1060 C.3   126  ILE126      0.1596
     66  C         58.4480 -127.0070   32.8020 C.2   126  ILE126      0.2287
     67  O         58.1370 -126.4110   33.8140 O.2   126  ILE126     -0.2864
     68  CB        56.3740 -128.3370   33.1150 C.3   126  ILE126      0.0276
     69  CG1       56.8810 -129.4130   34.0520 C.3   126  ILE126      0.0022
     70  CG2       55.1640 -128.7850   32.4020 C.3   126  ILE126      0.0022
     71  CD1       55.8310 -129.8360   35.0590 C.3   126  ILE126      0.0001
     72  N         61.7620 -127.7540   34.2600 N.3   128  CYS128     -0.1235
     73  CA        62.9390 -128.2000   34.9890 C.3   128  CYS128      0.1677
     74  C         64.1870 -128.0010   34.1520 C.2   128  CYS128      0.2270
     75  O         64.2910 -128.5220   33.0570 O.2   128  CYS128     -0.2867
     76  CB        62.8280 -129.6530   35.4040 C.3   128  CYS128      0.0956
     77  SG        64.1910 -130.1240   36.4820 S.3   128  CYS128     -0.0801
     78  N         67.7840 -128.6280   33.0510 N.3   130  ASP130     -0.1239
     79  CA        68.7190 -129.7170   33.0920 C.3   130  ASP130      0.1674
     80  C         70.0820 -129.1240   32.7970 C.2   130  ASP130      0.2266
     81  O         70.4470 -129.0090   31.6420 O.2   130  ASP130     -0.2867
     82  CB        68.2620 -130.7120   32.0190 C.3   130  ASP130      0.1410
     83  CG        69.2770 -131.8060   31.7190 C.2   130  ASP130      0.3668
     84  OD1       68.8170 -132.8750   31.2320 O.co2 130  ASP130     -0.2456
     85  OD2       70.5060 -131.6070   31.9120 O.co2 130  ASP130     -0.2456
@<TRIPOS>BOND
     1    12    11    2
     2     4     3    2
     3    11    10    1
     4     1     2    1
     5     3     2    1
     6    10     9    1
     7    10    13    1
     8    29    28    2
     9     2     5    1
    10     5     6    1
    11    13    14    1
    12    28    27    1
    13    30    27    1
    14    30    31    1
    15     6     8   ar
    16     6     7   ar
    17    33    31   ar
    18    33    35   ar
    19    27    26    1
    20    31    32   ar
    21    35    36   ar
    22    32    34   ar
    23    36    34   ar
    24    46    44   ar
    25    46    47   ar
    26    44    42   ar
    27    47    45   ar
    28    60    57    1
    29    60    61    1
    30    40    39    2
    31    62    61    1
    32    37    38    1
    33    57    56    1
    34    57    58    1
    35    42    41    1
    36    42    43   ar
    37    61    63    1
    38    56    50   am
    39    59    58    2
    40    45    43   ar
    41    39    38    1
    42    39    48   am
    43    41    38    1
    44    50    51    2
    45    50    49    1
    46    58    64   am
    47    49    48    1
    48    49    52    1
    49    84    83   ar
    50    64    65    1
    51    52    53    1
    52    81    80    2
    53    83    85   ar
    54    83    82    1
    55    82    79    1
    56    65    66    1
    57    65    68    1
    58    70    68    1
    59    55    53   ar
    60    53    54   ar
    61    80    79    1
    62    66    67    2
    63    78    79    1
    64    75    74    2
    65    68    69    1
    66    15    16    1
    67    18    17    2
    68    17    16    1
    69    16    19    1
    70    69    71    1
    71    74    73    1
    72    72    73    1
    73    73    76    1
    74    76    77    1
    75    19    20    1
    76    21    20    1
    77    21    22    1
    78    25    23    1
    79    22    23    2
    80    23    24    1
