@<TRIPOS>MOLECULE
tmp/1jd6A00.pdb
 157 153 0 0 0
SMALL
GASTEIGER

@<TRIPOS>ATOM
      1  N         -2.6910   58.9850   18.5500 N.3     5  GLN5       -0.1245
      2  CA        -3.6880   57.9340   18.7150 C.3     5  GLN5        0.1566
      3  C         -3.8670   57.6260   20.2080 C.2     5  GLN5        0.2260
      4  O         -4.9690   57.3520   20.6760 O.2     5  GLN5       -0.2867
      5  CB        -3.2220   56.6750   17.9630 C.3     5  GLN5        0.0367
      6  CG        -4.3440   55.7420   17.5430 C.3     5  GLN5        0.0905
      7  CD        -5.0430   56.2090   16.2830 C.2     5  GLN5        0.2608
      8  OE1       -4.4240   56.3120   15.2260 O.2     5  GLN5       -0.2717
      9  NE2       -6.3450   56.4300   16.3750 N.am    5  GLN5       -0.0878
     10  N          2.1410   46.5490   25.1700 N.3    41  THR41      -0.1218
     11  CA         0.7400   46.1290   25.1780 C.3    41  THR41       0.1862
     12  C          0.4470   45.2460   26.4130 C.2    41  THR41       0.2287
     13  O         -0.7010   45.1240   26.8580 O.2    41  THR41      -0.2866
     14  CB         0.4120   45.3380   23.8640 C.3    41  THR41       0.1770
     15  OG1        0.7980   46.1150   22.7180 O.3    41  THR41      -0.2211
     16  CG2       -1.0690   45.0050   23.7640 C.3    41  THR41       0.0375
     17  N          4.4080   42.4820   21.9220 N.3    46  ARG46      -0.1231
     18  CA         3.6020   43.4420   21.1900 C.3    46  ARG46       0.1694
     19  C          3.7400   44.8630   21.7560 C.2    46  ARG46       0.2592
     20  O          3.6660   45.0780   22.9750 O.2    46  ARG46      -0.2718
     21  CB         2.1390   43.0160   21.2460 C.3    46  ARG46       0.0321
     22  CG         1.8680   41.6740   20.6170 C.3    46  ARG46       0.0489
     23  CD         0.4440   41.3140   20.8990 C.3    46  ARG46       0.2205
     24  NE         0.0820   39.9860   20.4430 N.pl3  46  ARG46      -0.0865
     25  CZ        -0.4500   39.7220   19.2570 C.cat  46  ARG46       0.5346
     26  NH1       -0.6830   40.7000   18.3850 N.pl3  46  ARG46       0.1354
     27  NH2       -0.7630   38.4750   18.9500 N.pl3  46  ARG46       0.1354
     28  N          3.9860   45.8170   20.8630 N.am   47  VAL47      -0.1966
     29  CA         4.1030   47.2260   21.2150 C.3    47  VAL47       0.1727
     30  C          3.2840   48.0640   20.2310 C.2    47  VAL47       0.2616
     31  O          2.9980   47.6290   19.1130 O.2    47  VAL47      -0.2715
     32  CB         5.5840   47.7420   21.1870 C.3    47  VAL47       0.0290
     33  CG1        6.3970   47.1410   22.3140 C.3    47  VAL47       0.0023
     34  CG2        6.2390   47.4690   19.8280 C.3    47  VAL47       0.0023
     35  N          2.8970   49.2560   20.6590 N.am   48  ARG48      -0.1977
     36  CA         2.1680   50.1780   19.8120 C.3    48  ARG48       0.1597
     37  C          2.7820   51.5610   19.9040 C.2    48  ARG48       0.2287
     38  O          3.3030   51.9410   20.9490 O.2    48  ARG48      -0.2864
     39  CB         0.6840   50.2330   20.1960 C.3    48  ARG48       0.0334
     40  CG        -0.1370   49.1250   19.6360 C.3    48  ARG48       0.0492
     41  CD        -1.5470   49.1760   20.1540 C.3    48  ARG48       0.2205
     42  NE        -2.3900   48.2220   19.4510 N.pl3  48  ARG48      -0.0865
     43  CZ        -3.1940   48.5390   18.4440 C.cat  48  ARG48       0.5346
     44  NH1       -3.2790   49.7980   18.0220 N.pl3  48  ARG48       0.1354
     45  NH2       -3.8680   47.5840   17.8220 N.pl3  48  ARG48       0.1354
     46  N          0.9880   57.1180   15.6930 N.3    52  CYS52      -0.1221
     47  CA         0.2810   56.4620   14.5860 C.3    52  CYS52       0.1808
     48  C         -0.6140   55.2800   14.9770 C.2    52  CYS52       0.2602
     49  O         -1.4490   54.8250   14.1910 O.2    52  CYS52      -0.2717
     50  CB         1.2840   56.0170   13.5040 C.3    52  CYS52       0.0970
     51  SG         2.5570   54.8270   14.0390 S.3    52  CYS52      -0.0800
     52  N         -0.4010   54.7540   16.1760 N.am   53  GLY53      -0.1942
     53  CA        -1.2010   53.6430   16.6560 C.3    53  GLY53       0.2014
     54  C         -0.7880   52.2780   16.1480 C.2    53  GLY53       0.2639
     55  O         -1.2940   51.2470   16.6240 O.2    53  GLY53      -0.2714
     56  N          0.1350   52.2760   15.1930 N.am   54  GLY54      -0.1939
     57  CA         0.6450   51.0450   14.6250 C.3    54  GLY54       0.2014
     58  C          1.2660   50.1310   15.6580 C.2    54  GLY54       0.2639
     59  O          1.8710   50.5950   16.6230 O.2    54  GLY54      -0.2714
     60  N          1.1590   48.8240   15.4470 N.am   55  GLY55      -0.1939
     61  CA         1.7370   47.8980   16.4020 C.3    55  GLY55       0.2014
     62  C          2.6710   46.8950   15.7620 C.2    55  GLY55       0.2639
     63  O          2.3910   46.3410   14.6970 O.2    55  GLY55      -0.2714
     64  N          3.7990   46.6740   16.4220 N.am   56  LEU56      -0.1963
     65  CA         4.8070   45.7270   15.9630 C.3    56  LEU56       0.1728
     66  C          5.0450   44.5980   16.9830 C.2    56  LEU56       0.2616
     67  O          4.9480   44.8120   18.1930 O.2    56  LEU56      -0.2715
     68  CB         6.1240   46.4670   15.6630 C.3    56  LEU56       0.0311
     69  CG         6.1530   47.6460   14.6680 C.3    56  LEU56       0.0022
     70  CD1        7.5840   48.1540   14.5610 C.3    56  LEU56       0.0001
     71  CD2        5.6520   47.2350   13.2880 C.3    56  LEU56       0.0001
     72  N          5.3440   43.4050   16.4670 N.am   57  MET57      -0.1963
     73  CA         5.6090   42.2120   17.2610 C.3    57  MET57       0.1736
     74  C          6.6850   41.3570   16.5700 C.2    57  MET57       0.2616
     75  O          7.1440   41.6950   15.4700 O.2    57  MET57      -0.2715
     76  CB         4.3150   41.4010   17.4450 C.3    57  MET57       0.0427
     77  CG         3.7210   40.8850   16.1320 C.3    57  MET57       0.0599
     78  SD         2.1140   40.0670   16.3940 S.3    57  MET57      -0.1393
     79  CE         2.6460   38.5380   17.1580 C.3    57  MET57       0.0692
     80  N          7.0370   40.2370   17.2050 N.am   58  ASP58      -0.1957
     81  CA         8.0530   39.2860   16.7250 C.3    58  ASP58       0.1840
     82  C          9.3980   39.9270   16.3910 C.2    58  ASP58       0.2622
     83  O          9.8570   39.9300   15.2380 O.2    58  ASP58      -0.2715
     84  CB         7.5270   38.4290   15.5590 C.3    58  ASP58       0.1450
     85  CG         6.2670   37.6330   15.9260 C.2    58  ASP58       0.3671
     86  OD1        6.2220   37.0220   17.0190 O.co2  58  ASP58      -0.2456
     87  OD2        5.3130   37.6230   15.1220 O.co2  58  ASP58      -0.2456
     88  N          9.9730   40.5540   17.4110 N.am   59  TRP59      -0.1960
     89  CA        11.2510   41.2250   17.2990 C.3    59  TRP59       0.1771
     90  C         12.4220   40.2440   17.1940 C.2    59  TRP59       0.2619
     91  O         12.5400   39.3010   17.9760 O.2    59  TRP59      -0.2715
     92  CB        11.4560   42.1660   18.5020 C.3    59  TRP59       0.0590
     93  CG        10.4460   43.2940   18.5640 C.ar   59  TRP59       0.0006
     94  CD1        9.1880   43.2320   19.0710 C.ar   59  TRP59       0.0946
     95  CD2       10.6190   44.6310   18.0690 C.ar   59  TRP59       0.0152
     96  NE1        8.5500   44.4310   18.9270 N.ar   59  TRP59      -0.2442
     97  CE2        9.3990   45.3070   18.3170 C.ar   59  TRP59       0.0810
     98  CE3       11.6570   45.3190   17.4480 C.ar   59  TRP59       0.0012
     99  CZ2        9.2070   46.6420   17.9550 C.ar   59  TRP59       0.0191
    100  CZ3       11.4640   46.6500   17.0880 C.ar   59  TRP59       0.0001
    101  CH2       10.2500   47.2930   17.3430 C.ar   59  TRP59       0.0015
    102  N         13.2790   40.4790   16.2050 N.am   60  ASN60      -0.1972
    103  CA        14.4730   39.6650   15.9980 C.3    60  ASN60       0.1688
    104  C         15.5900   40.3580   16.7760 C.2    60  ASN60       0.2292
    105  O         15.5330   41.5700   16.9860 O.2    60  ASN60      -0.2864
    106  CB        14.8270   39.6100   14.5130 C.3    60  ASN60       0.1181
    107  CG        13.7420   38.9750   13.6640 C.2    60  ASN60       0.2629
    108  OD1       13.2290   37.9090   14.0010 O.2    60  ASN60      -0.2716
    109  ND2       13.4170   39.6060   12.5440 N.am   60  ASN60      -0.0877
    110  N         16.9840   43.6040   15.3640 N.3    63  ASP63      -0.1239
    111  CA        16.0820   44.7260   15.1250 C.3    63  ASP63       0.1674
    112  C         16.3640   45.9970   15.9290 C.2    63  ASP63       0.2266
    113  O         16.6160   45.9570   17.1410 O.2    63  ASP63      -0.2867
    114  CB        14.6230   44.3110   15.3600 C.3    63  ASP63       0.1410
    115  CG        14.0460   43.4560   14.2510 C.2    63  ASP63       0.3668
    116  OD1       14.7170   43.2480   13.2190 O.co2  63  ASP63      -0.2456
    117  OD2       12.9030   42.9920   14.4230 O.co2  63  ASP63      -0.2456
    118  N         12.5510   49.7130   12.4020 N.3    68  GLN68      -0.1245
    119  CA        11.3110   48.9590   12.2590 C.3    68  GLN68       0.1566
    120  C         10.1140   49.9010   12.2150 C.2    68  GLN68       0.2260
    121  O          9.1150   49.6500   11.5270 O.2    68  GLN68      -0.2867
    122  CB        11.1880   47.9350   13.4030 C.3    68  GLN68       0.0367
    123  CG        12.2750   46.8470   13.4020 C.3    68  GLN68       0.0905
    124  CD        12.2150   45.9520   12.1710 C.2    68  GLN68       0.2608
    125  OE1       11.4000   45.0340   12.1020 O.2    68  GLN68      -0.2717
    126  NE2       13.0860   46.2050   11.2060 N.am   68  GLN68      -0.0878
    127  N          7.9590   50.0650    8.6190 N.3    72  TRP72      -0.1227
    128  CA         6.5600   49.6600    8.5860 C.3    72  TRP72       0.1737
    129  C          5.5480   50.7910    8.6820 C.2    72  TRP72       0.2595
    130  O          4.5030   50.7350    8.0480 O.2    72  TRP72      -0.2718
    131  CB         6.2860   48.6450    9.6910 C.3    72  TRP72       0.0564
    132  CG         6.9950   47.3150    9.5320 C.ar   72  TRP72       0.0003
    133  CD1        7.9620   46.8180   10.3330 C.ar   72  TRP72       0.0946
    134  CD2        6.7390   46.3250    8.5230 C.ar   72  TRP72       0.0152
    135  NE1        8.3420   45.5730    9.9120 N.ar   72  TRP72      -0.2442
    136  CE2        7.6180   45.2420    8.8040 C.ar   72  TRP72       0.0810
    137  CE3        5.8880   46.2240    7.4290 C.ar   72  TRP72       0.0012
    138  CZ2        7.6390   44.0800    8.0260 C.ar   72  TRP72       0.0191
    139  CZ3        5.9090   45.0680    6.6500 C.ar   72  TRP72       0.0001
    140  CH2        6.7880   44.0180    6.9540 C.ar   72  TRP72       0.0015
    141  N          5.8270   51.7620    9.5450 N.am   73  LEU73      -0.1980
    142  CA         4.9410   52.9080    9.7710 C.3    73  LEU73       0.1596
    143  C          5.5970   54.2200    9.2980 C.2    73  LEU73       0.2287
    144  O          5.7950   55.1570   10.0930 O.2    73  LEU73      -0.2864
    145  CB         4.6310   53.0020   11.2730 C.3    73  LEU73       0.0297
    146  CG         4.1310   51.7150   11.9520 C.3    73  LEU73       0.0022
    147  CD1        4.2440   51.8030   13.4860 C.3    73  LEU73       0.0001
    148  CD2        2.6760   51.4700   11.5550 C.3    73  LEU73       0.0001
    149  N         12.2270   42.6250    4.3560 N.3   100  GLU100     -0.1245
    150  CA        11.2750   42.3830    5.4480 C.3   100  GLU100      0.1567
    151  C          9.9200   42.8660    4.9480 C.2   100  GLU100      0.2260
    152  O          8.8760   42.2430    5.1890 O.2   100  GLU100     -0.2867
    153  CB        11.6370   43.2180    6.6880 C.3   100  GLU100      0.0388
    154  CG        12.7830   42.7140    7.5710 C.3   100  GLU100      0.1160
    155  CD        12.8650   43.4590    8.8950 C.2   100  GLU100      0.3649
    156  OE1       11.8030   43.6710    9.5170 O.co2 100  GLU100     -0.2457
    157  OE2       13.9850   43.8350    9.3070 O.co2 100  GLU100     -0.2457
@<TRIPOS>BOND
     1   149   150    1
     2   151   152    2
     3   151   150    1
     4   150   153    1
     5   139   140   ar
     6   139   137   ar
     7   153   154    1
     8   140   138   ar
     9   137   134   ar
    10   154   155    1
    11   138   136   ar
    12   130   129    2
    13   134   136   ar
    14   134   132   ar
    15   128   127    1
    16   128   129    1
    17   128   131    1
    18   129   141   am
    19   136   135   ar
    20   155   157   ar
    21   155   156   ar
    22   143   142    1
    23   143   144    2
    24   132   131    1
    25   132   133   ar
    26   141   142    1
    27   142   145    1
    28   135   133   ar
    29   126   124   am
    30   145   146    1
    31   121   120    2
    32   148   146    1
    33   146   147    1
    34   125   124    2
    35   124   123    1
    36   120   119    1
    37   119   118    1
    38   119   122    1
    39   109   107   am
    40   116   115   ar
    41    71    69    1
    42   123   122    1
    43    50    51    1
    44    50    47    1
    45   107   108    2
    46   107   106    1
    47    49    48    2
    48   115   117   ar
    49   115   114    1
    50   106   103    1
    51    70    69    1
    52    47    48    1
    53    47    46    1
    54    57    56    1
    55    57    58    1
    56    69    68    1
    57    63    62    2
    58    48    52   am
    59    87    85   ar
    60   111   114    1
    61   111   110    1
    62   111   112    1
    63    56    54   am
    64     8     7    2
    65    83    82    2
    66    60    58   am
    67    60    61    1
    68    75    74    2
    69    84    85    1
    70    84    81    1
    71    58    59    2
    72    68    65    1
    73    62    61    1
    74    62    64   am
    75    85    86   ar
    76   112   113    2
    77    65    64    1
    78    65    66    1
    79   103   102    1
    80   103   104    1
    81    77    78    1
    82    77    76    1
    83    54    55    2
    84    54    53    1
    85    52    53    1
    86   102    90   am
    87     7     9   am
    88     7     6    1
    89    82    81    1
    90    82    88   am
    91    78    79    1
    92    72    66   am
    93    72    73    1
    94    74    80   am
    95    74    73    1
    96    81    80    1
    97   104   105    2
    98    66    67    2
    99   100   101   ar
   100   100    98   ar
   101    90    89    1
   102    90    91    2
   103    73    76    1
   104    89    88    1
   105    89    92    1
   106   101    99   ar
   107    98    95   ar
   108     6     5    1
   109    45    43    1
   110    99    97   ar
   111     5     2    1
   112    44    43    1
   113    95    97   ar
   114    95    93   ar
   115    97    96   ar
   116    26    25    1
   117    43    42    2
   118    92    93    1
   119     1     2    1
   120    93    94   ar
   121     2     3    1
   122    96    94   ar
   123    27    25    1
   124    31    30    2
   125    25    24    2
   126    42    41    1
   127    40    41    1
   128    40    39    1
   129    36    37    1
   130    36    39    1
   131    36    35    1
   132    34    32    1
   133    37    38    2
   134     3     4    2
   135    30    35   am
   136    30    29    1
   137    24    23    1
   138    22    23    1
   139    22    21    1
   140    28    29    1
   141    28    19   am
   142    32    29    1
   143    32    33    1
   144    18    21    1
   145    18    19    1
   146    18    17    1
   147    19    20    2
   148    15    14    1
   149    16    14    1
   150    14    11    1
   151    10    11    1
   152    11    12    1
   153    12    13    2
