@<TRIPOS>MOLECULE
tmp/1jddA00.pdb
 228 224 0 0 0
SMALL
GASTEIGER

@<TRIPOS>ATOM
      1  N         38.7920  110.5500   12.2940 N.3    25  TRP25      -0.1241
      2  CA        39.3350  109.1830   12.3560 C.3    25  TRP25       0.1605
      3  C         40.6640  109.0350   13.0240 C.2    25  TRP25       0.2264
      4  O         40.8270  108.0110   13.7240 O.2    25  TRP25      -0.2867
      5  CB        39.3570  108.5430   10.9490 C.3    25  TRP25       0.0550
      6  CG        39.7400  107.1030   10.8860 C.ar   25  TRP25       0.0003
      7  CD1       40.8840  106.5240   10.4160 C.ar   25  TRP25       0.0946
      8  CD2       38.9020  106.0230   11.3640 C.ar   25  TRP25       0.0152
      9  NE1       40.8350  105.1710   10.5730 N.ar   25  TRP25      -0.2442
     10  CE2       39.6430  104.8310   11.1640 C.ar   25  TRP25       0.0810
     11  CE3       37.6630  105.9830   11.9860 C.ar   25  TRP25       0.0012
     12  CZ2       39.1230  103.6010   11.5310 C.ar   25  TRP25       0.0191
     13  CZ3       37.1540  104.7550   12.3780 C.ar   25  TRP25       0.0001
     14  CH2       37.8780  103.5740   12.1330 C.ar   25  TRP25       0.0015
     15  N         38.8470  100.5730   23.1310 N.3    62  ASP62      -0.1239
     16  CA        39.1950   99.8210   21.9150 C.3    62  ASP62       0.1674
     17  C         40.7120   99.7800   21.7640 C.2    62  ASP62       0.2266
     18  O         41.3640  100.7900   21.5140 O.2    62  ASP62      -0.2867
     19  CB        38.4360  100.3450   20.7070 C.3    62  ASP62       0.1410
     20  CG        38.7710   99.7710   19.3730 C.2    62  ASP62       0.3668
     21  OD1       39.7240   98.9620   19.2220 O.co2  62  ASP62      -0.2456
     22  OD2       38.1180  100.0750   18.3650 O.co2  62  ASP62      -0.2456
     23  N         42.1080   97.4110   19.6370 N.3    64  SER64      -0.1202
     24  CA        42.3000   96.5940   18.4270 C.3    64  SER64       0.2020
     25  C         43.4080   97.2320   17.5910 C.2    64  SER64       0.2619
     26  O         43.8210   98.3870   17.7990 O.2    64  SER64      -0.2717
     27  CB        41.0350   96.5010   17.5970 C.3    64  SER64       0.2103
     28  OG        40.6570   97.7800   17.1520 O.3    64  SER64      -0.2182
     29  N         43.8600   96.4310   16.6440 N.am   65  SER65      -0.1937
     30  CA        44.9400   96.7830   15.6900 C.3    65  SER65       0.2055
     31  C         44.7610   95.9760   14.4100 C.2    65  SER65       0.2643
     32  O         44.3360   94.8100   14.5230 O.2    65  SER65      -0.2714
     33  CB        46.2850   96.4590   16.3160 C.3    65  SER65       0.2130
     34  OG        47.2530   97.4260   15.9260 O.3    65  SER65      -0.2179
     35  N         44.9910   96.5290   13.2480 N.am   66  TRP66      -0.1973
     36  CA        44.8670   95.8790   11.9460 C.3    66  TRP66       0.1640
     37  C         45.7880   96.5750   10.9320 C.2    66  TRP66       0.2290
     38  O         46.2100   97.7160   11.0790 O.2    66  TRP66      -0.2864
     39  CB        43.4510   95.7520   11.3940 C.3    66  TRP66       0.0576
     40  CG        42.8020   97.0540   11.1300 C.ar   66  TRP66       0.0006
     41  CD1       41.9900   97.7560   11.9910 C.ar   66  TRP66       0.0946
     42  CD2       42.9640   97.8670    9.9590 C.ar   66  TRP66       0.0152
     43  NE1       41.6270   98.9350   11.4120 N.ar   66  TRP66      -0.2442
     44  CE2       42.2040   99.0370   10.1740 C.ar   66  TRP66       0.0810
     45  CE3       43.6580   97.7200    8.7820 C.ar   66  TRP66       0.0012
     46  CZ2       42.0970  100.0340    9.2200 C.ar   66  TRP66       0.0191
     47  CZ3       43.5870   98.7230    7.8360 C.ar   66  TRP66       0.0001
     48  CH2       42.8070   99.8570    8.0430 C.ar   66  TRP66       0.0015
     49  N         46.6170   96.1670    6.4180 N.3    68  ASP68      -0.1239
     50  CA        46.5160   95.5180    5.1140 C.3    68  ASP68       0.1674
     51  C         47.2600   96.4430    4.1170 C.2    68  ASP68       0.2266
     52  O         46.7220   97.3100    3.4250 O.2    68  ASP68      -0.2867
     53  CB        45.2350   94.9650    4.5790 C.3    68  ASP68       0.1410
     54  CG        44.0890   95.9380    4.8070 C.2    68  ASP68       0.3668
     55  OD1       44.0200   96.8720    3.9670 O.co2  68  ASP68      -0.2456
     56  OD2       43.3530   95.7640    5.8040 O.co2  68  ASP68      -0.2456
     57  N         42.7880  100.8860   14.0920 N.3    74  GLY74      -0.1225
     58  CA        42.4560  100.2760   15.3640 C.3    74  GLY74       0.1811
     59  C         42.4840  101.2880   16.4940 C.2    74  GLY74       0.2280
     60  O         43.2120  102.2830   16.4880 O.2    74  GLY74      -0.2866
     61  N         39.8310  103.0960   17.5330 N.3    76  GLU76      -0.1245
     62  CA        38.9590  104.2390   17.3110 C.3    76  GLU76       0.1567
     63  C         37.6130  104.1320   17.9550 C.2    76  GLU76       0.2260
     64  O         36.8920  105.1330   18.0260 O.2    76  GLU76      -0.2867
     65  CB        38.7810  104.6200   15.8420 C.3    76  GLU76       0.0388
     66  CG        40.0860  104.7000   15.0500 C.3    76  GLU76       0.1160
     67  CD        40.5520  103.3820   14.4890 C.2    76  GLU76       0.3649
     68  OE1       39.9910  102.3190   14.6790 O.co2  76  GLU76      -0.2457
     69  OE2       41.5910  103.5750   13.8310 O.co2  76  GLU76      -0.2457
     70  N         35.3050  101.3640   17.1270 N.3    78  TYR78      -0.1227
     71  CA        34.3730  100.4780   16.4100 C.3    78  TYR78       0.1736
     72  C         34.5680   98.9850   16.6110 C.2    78  TYR78       0.2595
     73  O         33.7180   98.1640   16.1930 O.2    78  TYR78      -0.2718
     74  CB        34.2690  100.8840   14.9000 C.3    78  TYR78       0.0548
     75  CG        33.7740  102.3330   14.9060 C.ar   78  TYR78      -0.0200
     76  CD1       32.4300  102.6040   15.1330 C.ar   78  TYR78      -0.0009
     77  CD2       34.6970  103.3910   14.7750 C.ar   78  TYR78      -0.0009
     78  CE1       31.9730  103.9270   15.1750 C.ar   78  TYR78       0.0417
     79  CE2       34.2430  104.6980   14.8270 C.ar   78  TYR78       0.0417
     80  CZ        32.9020  104.9560   15.0300 C.ar   78  TYR78       0.1957
     81  OH        32.4340  106.2480   15.1200 O.3    78  TYR78      -0.2866
     82  N         35.5880   98.6410   17.3490 N.am   79  PHE79      -0.1976
     83  CA        35.9090   97.2340   17.6860 C.3    79  PHE79       0.1639
     84  C         36.3140   97.1860   19.1600 C.2    79  PHE79       0.2290
     85  O         37.4270   96.7390   19.4600 O.2    79  PHE79      -0.2864
     86  CB        36.9970   96.6650   16.7640 C.3    79  PHE79       0.0560
     87  CG        36.7980   95.2100   16.4310 C.ar   79  PHE79      -0.0200
     88  CD1       35.5640   94.7900   15.9490 C.ar   79  PHE79      -0.0042
     89  CD2       37.8500   94.3080   16.6010 C.ar   79  PHE79      -0.0042
     90  CE1       35.3370   93.4620   15.6330 C.ar   79  PHE79      -0.0003
     91  CE2       37.6310   92.9590   16.2850 C.ar   79  PHE79      -0.0003
     92  CZ        36.3860   92.5390   15.7940 C.ar   79  PHE79      -0.0000
     93  N         28.7230   94.3660   17.1240 N.3   117  HIS117     -0.1241
     94  CA        29.8530   93.4450   17.3040 C.3   117  HIS117      0.1621
     95  C         30.7610   93.9840   18.3820 C.2   117  HIS117      0.2264
     96  O         30.5040   95.0950   18.8300 O.2   117  HIS117     -0.2867
     97  CB        30.6670   93.2830   15.9760 C.3   117  HIS117      0.0745
     98  CG        31.0260   94.6220   15.3770 C.ar  117  HIS117      0.0817
     99  ND1       30.2310   95.2560   14.4490 N.ar  117  HIS117     -0.2268
    100  CD2       32.0710   95.4500   15.6350 C.ar  117  HIS117      0.1154
    101  CE1       30.8030   96.4180   14.1320 C.ar  117  HIS117      0.1986
    102  NE2       31.9050   96.5580   14.8480 N.ar  117  HIS117     -0.2212
    103  N         29.1700   91.9910   10.2570 N.3   156  PHE156     -0.1227
    104  CA        30.3040   92.9040   10.0240 C.3   156  PHE156      0.1736
    105  C         31.4290   92.0490    9.4370 C.2   156  PHE156      0.2595
    106  O         31.9880   91.2010   10.1750 O.2   156  PHE156     -0.2718
    107  CB        30.6610   93.6220   11.3050 C.3   156  PHE156      0.0547
    108  CG        31.9740   94.3340   11.1740 C.ar  156  PHE156     -0.0202
    109  CD1       32.0370   95.4350   10.3020 C.ar  156  PHE156     -0.0042
    110  CD2       33.0810   93.8770   11.8620 C.ar  156  PHE156     -0.0042
    111  CE1       33.2400   96.1140   10.1260 C.ar  156  PHE156     -0.0003
    112  CE2       34.2890   94.5810   11.7030 C.ar  156  PHE156     -0.0003
    113  CZ        34.3510   95.6960   10.8360 C.ar  156  PHE156     -0.0000
    114  N         31.7510   92.2500    8.1820 N.am  157  ILE157     -0.1966
    115  CA        32.7710   91.4870    7.4350 C.3   157  ILE157      0.1727
    116  C         32.4460   89.9890    7.4910 C.2   157  ILE157      0.2616
    117  O         31.4080   89.5130    6.9490 O.2   157  ILE157     -0.2715
    118  CB        34.2010   91.9170    7.8210 C.3   157  ILE157      0.0290
    119  CG1       34.2560   93.4820    7.8190 C.3   157  ILE157      0.0022
    120  CG2       35.3310   91.4060    6.8920 C.3   157  ILE157      0.0023
    121  CD1       35.6820   93.9940    8.1240 C.3   157  ILE157      0.0001
    122  N         33.2820   89.2430    8.1720 N.am  158  GLY158     -0.1955
    123  CA        33.1300   87.7990    8.3650 C.3   158  GLY158      0.1869
    124  C         31.9740   87.4210    9.2490 C.2   158  GLY158      0.2309
    125  O         31.4110   86.2930    9.0670 O.2   158  GLY158     -0.2863
    126  N         32.1300   86.8130   12.4740 N.3   160  ASP160     -0.1225
    127  CA        32.6230   86.0550   13.6410 C.3   160  ASP160      0.1805
    128  C         32.5830   86.8690   14.9440 C.2   160  ASP160      0.2597
    129  O         32.7380   86.2930   16.0430 O.2   160  ASP160     -0.2718
    130  CB        34.0540   85.5810   13.3740 C.3   160  ASP160      0.1424
    131  CG        34.9350   86.7000   12.8180 C.2   160  ASP160      0.3668
    132  OD1       34.5510   87.3440   11.8160 O.co2 160  ASP160     -0.2456
    133  OD2       36.0160   86.8860   13.4200 O.co2 160  ASP160     -0.2456
    134  N         32.4080   88.1890   14.8120 N.am  161  ALA161     -0.1979
    135  CA        32.3710   89.0900   15.9540 C.3   161  ALA161      0.1597
    136  C         30.9690   89.6340   16.1360 C.2   161  ALA161      0.2287
    137  O         30.7410   90.4310   17.0670 O.2   161  ALA161     -0.2864
    138  CB        33.4400   90.1530   15.8320 C.3   161  ALA161      0.0319
    139  N         24.1800  107.9100   18.8900 N.3   191  ARG191     -0.1245
    140  CA        24.3620  107.7050   17.4420 C.3   191  ARG191      0.1563
    141  C         24.4760  106.1690   17.3330 C.2   191  ARG191      0.2260
    142  O         25.3690  105.5740   17.9770 O.2   191  ARG191     -0.2867
    143  CB        25.5190  108.4780   16.8880 C.3   191  ARG191      0.0307
    144  CG        25.7800  108.1810   15.4240 C.3   191  ARG191      0.0489
    145  CD        26.8940  107.2530   15.2510 C.3   191  ARG191      0.2205
    146  NE        27.3740  107.1110   13.8750 N.pl3 191  ARG191     -0.0865
    147  CZ        28.1300  106.0810   13.4770 C.cat 191  ARG191      0.5346
    148  NH1       28.4430  105.0860   14.3040 N.pl3 191  ARG191      0.1354
    149  NH2       28.6780  106.0960   12.2670 N.pl3 191  ARG191      0.1354
    150  N         25.4530  102.9010   15.6420 N.3   193  ASP193     -0.1225
    151  CA        26.3780  102.4200   14.6250 C.3   193  ASP193      0.1805
    152  C         25.8790  101.1480   13.8960 C.2   193  ASP193      0.2597
    153  O         25.1810  100.2930   14.4410 O.2   193  ASP193     -0.2718
    154  CB        27.7480  102.1640   15.2380 C.3   193  ASP193      0.1424
    155  CG        28.7560  101.7940   14.1560 C.2   193  ASP193      0.3668
    156  OD1       29.0350  102.6790   13.3220 O.co2 193  ASP193     -0.2456
    157  OD2       29.2000  100.6400   14.1780 O.co2 193  ASP193     -0.2456
    158  N         26.3170  101.0780   12.6610 N.am  194  PHE194     -0.1976
    159  CA        26.0850   99.9420   11.7280 C.3   194  PHE194      0.1639
    160  C         24.7440   99.3000   11.9340 C.2   194  PHE194      0.2290
    161  O         24.5630   98.1090   12.2270 O.2   194  PHE194     -0.2864
    162  CB        27.2810   99.0120   11.9200 C.3   194  PHE194      0.0560
    163  CG        27.5000   97.9450   10.8870 C.ar  194  PHE194     -0.0200
    164  CD1       26.8730   96.6980   11.0080 C.ar  194  PHE194     -0.0042
    165  CD2       28.3860   98.1760    9.8290 C.ar  194  PHE194     -0.0042
    166  CE1       27.0780   95.6990   10.0610 C.ar  194  PHE194     -0.0003
    167  CE2       28.5970   97.1890    8.8690 C.ar  194  PHE194     -0.0003
    168  CZ        27.9570   95.9600    9.0050 C.ar  194  PHE194     -0.0000
    169  N         22.9310  105.3090   11.6770 N.3   219  GLN219     -0.1245
    170  CA        23.8660  105.2900   10.5180 C.3   219  GLN219      0.1566
    171  C         23.5290  104.0680    9.6520 C.2   219  GLN219      0.2260
    172  O         23.9480  102.9250    9.9600 O.2   219  GLN219     -0.2867
    173  CB        25.2900  105.3380   10.9700 C.3   219  GLN219      0.0367
    174  CG        26.3310  104.5620   10.1570 C.3   219  GLN219      0.0905
    175  CD        27.0170  105.4870    9.1740 C.2   219  GLN219      0.2608
    176  OE1       26.3640  106.4920    8.9420 O.2   219  GLN219     -0.2717
    177  NE2       28.1930  105.2290    8.6810 N.am  219  GLN219     -0.0878
    178  N         24.1750  102.9110    6.0480 N.3   221  TRP221     -0.1241
    179  CA        24.9260  103.0670    4.7880 C.3   221  TRP221      0.1605
    180  C         24.7510  101.7660    3.9810 C.2   221  TRP221      0.2264
    181  O         25.5610  100.8340    4.1340 O.2   221  TRP221     -0.2867
    182  CB        26.3890  103.3530    5.0640 C.3   221  TRP221      0.0550
    183  CG        27.1510  103.7510    3.8470 C.ar  221  TRP221      0.0003
    184  CD1       26.6730  103.8090    2.5660 C.ar  221  TRP221      0.0946
    185  CD2       28.5380  104.1300    3.7770 C.ar  221  TRP221      0.0152
    186  NE1       27.6760  104.1950    1.7240 N.ar  221  TRP221     -0.2442
    187  CE2       28.8230  104.4000    2.4290 C.ar  221  TRP221      0.0810
    188  CE3       29.5530  104.2650    4.7060 C.ar  221  TRP221      0.0012
    189  CZ2       30.0810  104.8140    2.0110 C.ar  221  TRP221      0.0191
    190  CZ3       30.8020  104.6760    4.3000 C.ar  221  TRP221      0.0001
    191  CH2       31.0630  104.9590    2.9670 C.ar  221  TRP221      0.0015
    192  N         33.8480  110.5640    9.5190 N.3   293  HIS293     -0.1226
    193  CA        35.1190  109.8710    9.7710 C.3   293  HIS293      0.1752
    194  C         35.3680  108.7800    8.7540 C.2   293  HIS293      0.2596
    195  O         36.5420  108.4820    8.5590 O.2   293  HIS293     -0.2718
    196  CB        35.2550  109.3540   11.2410 C.3   293  HIS293      0.0759
    197  CG        34.1350  108.3910   11.5150 C.ar  293  HIS293      0.0818
    198  ND1       32.8360  108.7360   11.6420 N.ar  293  HIS293     -0.2268
    199  CD2       34.1950  107.0240   11.6230 C.ar  293  HIS293      0.1154
    200  CE1       32.0960  107.6420   11.8180 C.ar  293  HIS293      0.1986
    201  NE2       32.9100  106.6080   11.8110 N.ar  293  HIS293     -0.2212
    202  N         34.3880  108.2390    8.0840 N.am  294  ASP294     -0.1974
    203  CA        34.5120  107.1860    7.0670 C.3   294  ASP294      0.1709
    204  C         34.6760  107.8080    5.6790 C.2   294  ASP294      0.2293
    205  O         35.6190  107.4800    4.9700 O.2   294  ASP294     -0.2864
    206  CB        33.2650  106.3210    6.9690 C.3   294  ASP294      0.1436
    207  CG        32.9570  105.4930    8.1590 C.2   294  ASP294      0.3671
    208  OD1       33.9180  105.0800    8.8390 O.co2 294  ASP294     -0.2456
    209  OD2       31.8010  105.2000    8.4910 O.co2 294  ASP294     -0.2456
    210  N         40.4260  107.8090    6.3070 N.3   305  GLN305     -0.1245
    211  CA        39.7690  106.7850    5.4810 C.3   305  GLN305      0.1566
    212  C         39.3490  107.2340    4.1040 C.2   305  GLN305      0.2260
    213  O         39.5570  106.5090    3.0970 O.2   305  GLN305     -0.2867
    214  CB        38.5670  106.1440    6.1860 C.3   305  GLN305      0.0367
    215  CG        38.9280  105.4590    7.5010 C.3   305  GLN305      0.0905
    216  CD        37.7730  104.6110    7.9910 C.2   305  GLN305      0.2608
    217  OE1       37.6310  103.4490    7.6760 O.2   305  GLN305     -0.2717
    218  NE2       36.8600  105.2000    8.7640 N.am  305  GLN305     -0.0878
    219  N         36.6540  107.3330    2.2820 N.3   307  HIS307     -0.1241
    220  CA        35.9430  106.3660    1.4590 C.3   307  HIS307      0.1621
    221  C         35.0220  107.0600    0.4650 C.2   307  HIS307      0.2264
    222  O         34.6270  106.3880   -0.5050 O.2   307  HIS307     -0.2867
    223  CB        34.9970  105.3890    2.2140 C.3   307  HIS307      0.0745
    224  CG        35.7290  104.4810    3.1450 C.ar  307  HIS307      0.0817
    225  ND1       36.8730  103.8020    2.8380 N.ar  307  HIS307     -0.2268
    226  CD2       35.4250  104.1280    4.4210 C.ar  307  HIS307      0.1154
    227  CE1       37.2740  103.1130    3.9010 C.ar  307  HIS307      0.1986
    228  NE2       36.4060  103.2950    4.8590 N.ar  307  HIS307     -0.2212
@<TRIPOS>BOND
     1   222   221    2
     2   221   220    1
     3   220   223    1
     4   220   219    1
     5   186   187   ar
     6   186   184   ar
     7   189   187   ar
     8   189   191   ar
     9   223   224    1
    10   187   185   ar
    11   184   183   ar
    12   225   224   ar
    13   225   227   ar
    14   191   190   ar
    15   213   212    2
    16   224   226   ar
    17    52    51    2
    18   185   183   ar
    19   185   188   ar
    20   183   182    1
    21   227   228   ar
    22    55    54   ar
    23   180   181    2
    24   180   179    1
    25   212   211    1
    26    51    50    1
    27   190   188   ar
    28   226   228   ar
    29    53    54    1
    30    53    50    1
    31   179   182    1
    32   179   178    1
    33    54    56   ar
    34   205   204    2
    35    50    49    1
    36   211   214    1
    37   211   210    1
    38   204   203    1
    39   214   215    1
    40   120   118    1
    41   117   116    2
    42   206   203    1
    43   206   207    1
    44   203   202    1
    45   115   116    1
    46   115   118    1
    47   115   114    1
    48   116   122   am
    49   215   216    1
    50   217   216    2
    51   119   118    1
    52   119   121    1
    53    47    48   ar
    54    47    45   ar
    55   216   218   am
    56    48    46   ar
    57   202   194   am
    58   207   209   ar
    59   207   208   ar
    60   122   123    1
    61   114   105   am
    62   123   124    1
    63   195   194    2
    64   177   175   am
    65   194   193    1
    66    45    42   ar
    67   167   168   ar
    68   167   165   ar
    69   176   175    2
    70   168   166   ar
    71   125   124    2
    72   175   174    1
    73    46    44   ar
    74   105   104    1
    75   105   106    2
    76   192   193    1
    77   171   172    2
    78   171   170    1
    79   193   196    1
    80   165   163   ar
    81    42    44   ar
    82    42    40   ar
    83   104   103    1
    84   104   107    1
    85   166   164   ar
    86   111   109   ar
    87   111   113   ar
    88   174   173    1
    89    44    43   ar
    90   109   108   ar
    91     7     9   ar
    92     7     6   ar
    93   170   173    1
    94   170   169    1
    95     9    10   ar
    96   113   112   ar
    97     6     5    1
    98     6     8   ar
    99   163   164   ar
   100   163   162    1
   101    37    38    2
   102    37    36    1
   103     5     2    1
   104    40    39    1
   105    40    41   ar
   106    10     8   ar
   107    10    12   ar
   108   108   107    1
   109   108   110   ar
   110   196   197    1
   111     8    11   ar
   112    39    36    1
   113    43    41   ar
   114   197   199   ar
   115   197   198   ar
   116    12    14   ar
   117   199   201   ar
   118   198   200   ar
   119   112   110   ar
   120   159   162    1
   121   159   160    1
   122   159   158    1
   123   201   200   ar
   124   132   131   ar
   125   160   161    2
   126    36    35    1
   127    11    13   ar
   128    14    13   ar
   129   149   147    1
   130     1     2    1
   131     2     3    1
   132   126   127    1
   133   158   152   am
   134   131   130    1
   135   131   133   ar
   136     3     4    2
   137    35    31   am
   138   156   155   ar
   139   130   127    1
   140   147   146    2
   141   147   148    1
   142   127   128    1
   143    69    67   ar
   144   146   145    1
   145   152   153    2
   146   152   151    1
   147    57    58    1
   148   101    99   ar
   149   101   102   ar
   150   155   157   ar
   151   155   154    1
   152    31    32    2
   153    31    30    1
   154    99    98   ar
   155    67    68   ar
   156    67    66    1
   157   151   154    1
   158   151   150    1
   159    77    79   ar
   160    77    75   ar
   161   134   128   am
   162   134   135    1
   163    79    80   ar
   164   102   100   ar
   165    74    75    1
   166    74    71    1
   167    75    76   ar
   168   128   129    2
   169    80    81    1
   170    80    78   ar
   171    66    65    1
   172    76    78   ar
   173   145   144    1
   174    58    59    1
   175    98   100   ar
   176    98    97    1
   177   144   143    1
   178    90    92   ar
   179    90    88   ar
   180    30    33    1
   181    30    29    1
   182    92    91   ar
   183   138   135    1
   184    65    62    1
   185    34    33    1
   186    88    87   ar
   187   135   136    1
   188    97    94    1
   189   136   137    2
   190    73    72    2
   191    91    89   ar
   192    71    72    1
   193    71    70    1
   194    87    89   ar
   195    87    86    1
   196    60    59    2
   197    72    82   am
   198    29    25   am
   199    86    83    1
   200   143   140    1
   201    93    94    1
   202    28    27    1
   203    94    95    1
   204    62    61    1
   205    62    63    1
   206   141   140    1
   207   141   142    2
   208    82    83    1
   209   140   139    1
   210    25    26    2
   211    25    24    1
   212    27    24    1
   213    83    84    1
   214    63    64    2
   215    22    20   ar
   216    95    96    2
   217    24    23    1
   218    84    85    2
   219    21    20   ar
   220    20    19    1
   221    19    16    1
   222    18    17    2
   223    17    16    1
   224    16    15    1
