@<TRIPOS>MOLECULE
tmp/1jdnA00.pdb
 168 158 0 0 0
SMALL
GASTEIGER

@<TRIPOS>ATOM
      1  N         22.5370   86.8330   40.4000 N.3   234  GLU234     -0.1245
      2  CA        23.2370   85.6340   40.8510 C.3   234  GLU234      0.1567
      3  C         24.7220   85.9690   40.9950 C.2   234  GLU234      0.2260
      4  O         25.5260   85.5790   40.1470 O.2   234  GLU234     -0.2867
      5  CB        23.0630   84.4950   39.8450 C.3   234  GLU234      0.0388
      6  CG        23.5650   83.1640   40.3770 C.3   234  GLU234      0.1160
      7  CD        23.5590   82.0460   39.3350 C.2   234  GLU234      0.3649
      8  OE1       23.9400   80.9010   39.6730 O.co2 234  GLU234     -0.2457
      9  OE2       23.1780   82.3060   38.1770 O.co2 234  GLU234     -0.2457
     10  N         27.9920   84.0670   39.5000 N.3   237  ASN237     -0.1240
     11  CA        27.3530   82.8360   39.0150 C.3   237  ASN237      0.1653
     12  C         27.3530   81.7010   40.0430 C.2   237  ASN237      0.2266
     13  O         27.7200   80.5480   39.7440 O.2   237  ASN237     -0.2867
     14  CB        27.9650   82.3650   37.6870 C.3   237  ASN237      0.1155
     15  CG        27.1820   82.8670   36.4810 C.2   237  ASN237      0.2627
     16  OD1       26.3730   83.7760   36.6150 O.2   237  ASN237     -0.2716
     17  ND2       27.4260   82.3150   35.2960 N.am  237  ASN237     -0.0877
     18  N         19.5330   81.2170   41.1420 N.3   243  ASP243     -0.1239
     19  CA        19.7770   81.0500   39.7150 C.3   243  ASP243      0.1674
     20  C         18.4580   80.9410   38.9680 C.2   243  ASP243      0.2266
     21  O         18.4360   80.6050   37.7830 O.2   243  ASP243     -0.2867
     22  CB        20.5890   79.7870   39.4800 C.3   243  ASP243      0.1410
     23  CG        19.9410   78.5670   40.0990 C.2   243  ASP243      0.3668
     24  OD1       19.6280   78.6040   41.3130 O.co2 243  ASP243     -0.2456
     25  OD2       19.7460   77.5710   39.3760 O.co2 243  ASP243     -0.2456
     26  N         22.8210   86.7430   35.2750 N.3   267  THR267     -0.1203
     27  CA        23.9820   85.8900   35.5010 C.3   267  THR267      0.1994
     28  C         25.1180   86.3110   34.5880 C.2   267  THR267      0.2618
     29  O         24.9730   87.2390   33.7840 O.2   267  THR267     -0.2717
     30  CB        23.6680   84.4090   35.1810 C.3   267  THR267      0.1784
     31  OG1       23.5640   84.2400   33.7620 O.3   267  THR267     -0.2211
     32  CG2       22.3620   83.9900   35.8220 C.3   267  THR267      0.0376
     33  N         26.2520   85.6280   34.7160 N.am  268  LEU268     -0.1965
     34  CA        27.3880   85.9180   33.8630 C.3   268  LEU268      0.1728
     35  C         27.0260   85.3080   32.5280 C.2   268  LEU268      0.2616
     36  O         26.3580   84.2770   32.4870 O.2   268  LEU268     -0.2715
     37  CB        28.6480   85.2410   34.3840 C.3   268  LEU268      0.0311
     38  CG        29.1940   85.6550   35.7410 C.3   268  LEU268      0.0022
     39  CD1       30.3170   84.6980   36.0980 C.3   268  LEU268      0.0001
     40  CD2       29.6810   87.0970   35.7020 C.3   268  LEU268      0.0001
     41  N         27.4690   85.9390   31.4480 N.am  269  LEU269     -0.1963
     42  CA        27.1900   85.4550   30.1020 C.3   269  LEU269      0.1728
     43  C         27.2460   83.9250   30.0100 C.2   269  LEU269      0.2616
     44  O         28.2050   83.2800   30.4320 O.2   269  LEU269     -0.2715
     45  CB        28.1640   86.1010   29.1240 C.3   269  LEU269      0.0311
     46  CG        28.1330   85.6950   27.6560 C.3   269  LEU269      0.0022
     47  CD1       26.7290   85.7780   27.0950 C.3   269  LEU269      0.0001
     48  CD2       29.0840   86.6160   26.9040 C.3   269  LEU269      0.0001
     49  N         26.1890   83.3580   29.4510 N.am  270  ARG270     -0.1963
     50  CA        26.0370   81.9220   29.3180 C.3   270  ARG270      0.1729
     51  C         27.0020   81.2260   28.3650 C.2   270  ARG270      0.2617
     52  O         27.2870   81.7360   27.2820 O.2   270  ARG270     -0.2715
     53  CB        24.5910   81.6400   28.9000 C.3   270  ARG270      0.0348
     54  CG        24.3510   80.3210   28.2140 C.3   270  ARG270      0.0492
     55  CD        23.5450   80.5540   26.9550 C.3   270  ARG270      0.2205
     56  NE        23.2960   79.3240   26.2150 N.pl3 270  ARG270     -0.0865
     57  CZ        22.6630   78.2710   26.7230 C.cat 270  ARG270      0.5346
     58  NH1       22.2190   78.3060   27.9750 N.pl3 270  ARG270      0.1354
     59  NH2       22.4700   77.1880   25.9810 N.pl3 270  ARG270      0.1354
     60  N         27.5150   80.0710   28.7900 N.am  271  THR271     -0.1937
     61  CA        28.3970   79.2420   27.9620 C.3   271  THR271      0.2028
     62  C         27.9430   77.8080   28.0710 C.2   271  THR271      0.2642
     63  O         27.3760   77.3910   29.0820 O.2   271  THR271     -0.2714
     64  CB        29.9040   79.2470   28.3710 C.3   271  THR271      0.1808
     65  OG1       30.0330   79.3680   29.7930 O.3   271  THR271     -0.2208
     66  CG2       30.6600   80.3460   27.6400 C.3   271  THR271      0.0379
     67  N         28.2050   77.0530   27.0150 N.am  272  VAL272     -0.1977
     68  CA        27.8330   75.6550   26.9800 C.3   272  VAL272      0.1596
     69  C         28.9390   74.8740   26.2850 C.2   272  VAL272      0.2287
     70  O         28.8520   73.6550   26.1390 O.2   272  VAL272     -0.2864
     71  CB        26.5040   75.4560   26.2180 C.3   272  VAL272      0.0276
     72  CG1       26.0280   74.0270   26.3700 C.3   272  VAL272      0.0022
     73  CG2       25.4550   76.4010   26.7500 C.3   272  VAL272      0.0022
     74  N         31.8070   72.5600   25.3770 N.3   274  PRO274     -0.2116
     75  CA        32.2830   71.3060   25.9700 C.3   274  PRO274      0.1372
     76  C         33.4700   71.4680   26.9100 C.2   274  PRO274      0.2244
     77  O         33.4590   70.9400   28.0240 O.2   274  PRO274     -0.2868
     78  CB        32.6350   70.4650   24.7500 C.3   274  PRO274      0.0268
     79  CG        31.6700   70.9450   23.7320 C.3   274  PRO274      0.0207
     80  CD        31.7560   72.4310   23.9100 C.3   274  PRO274      0.0892
     81  N         34.2320   73.6260   28.7770 N.3   276  PHE276     -0.1227
     82  CA        33.7250   74.1100   30.0570 C.3   276  PHE276      0.1736
     83  C         33.0570   73.0160   30.8950 C.2   276  PHE276      0.2595
     84  O         32.9750   73.1240   32.1240 O.2   276  PHE276     -0.2718
     85  CB        32.7270   75.2410   29.8320 C.3   276  PHE276      0.0547
     86  CG        32.1550   75.7980   31.1030 C.ar  276  PHE276     -0.0202
     87  CD1       32.9710   76.4700   32.0110 C.ar  276  PHE276     -0.0042
     88  CD2       30.8040   75.6390   31.4010 C.ar  276  PHE276     -0.0042
     89  CE1       32.4510   76.9760   33.1980 C.ar  276  PHE276     -0.0003
     90  CE2       30.2720   76.1420   32.5860 C.ar  276  PHE276     -0.0003
     91  CZ        31.0980   76.8110   33.4860 C.ar  276  PHE276     -0.0000
     92  N         32.5580   71.9790   30.2310 N.am  277  GLU277     -0.1979
     93  CA        31.9270   70.8700   30.9340 C.3   277  GLU277      0.1602
     94  C         33.0280   69.9810   31.4820 C.2   277  GLU277      0.2287
     95  O         32.9380   69.4870   32.6070 O.2   277  GLU277     -0.2864
     96  CB        31.0330   70.0660   29.9890 C.3   277  GLU277      0.0415
     97  CG        29.5710   70.4860   30.0080 C.3   277  GLU277      0.1163
     98  CD        29.3550   71.9560   29.6520 C.2   277  GLU277      0.3649
     99  OE1       28.1910   72.4260   29.7120 O.co2 277  GLU277     -0.2457
    100  OE2       30.3450   72.6430   29.3110 O.co2 277  GLU277     -0.2457
    101  N         34.3330   71.8570   34.3950 N.3   280  SER280     -0.1202
    102  CA        33.4120   71.7680   35.5200 C.3   280  SER280      0.2020
    103  C         33.4240   70.4150   36.2080 C.2   280  SER280      0.2618
    104  O         33.5830   70.3340   37.4280 O.2   280  SER280     -0.2717
    105  CB        31.9950   72.1030   35.0670 C.3   280  SER280      0.2103
    106  OG        31.9240   73.4510   34.6480 O.3   280  SER280     -0.2182
    107  N         33.2590   69.3520   35.4300 N.am  281  MET281     -0.1979
    108  CA        33.2510   68.0110   35.9990 C.3   281  MET281      0.1605
    109  C         34.5320   67.6990   36.7640 C.2   281  MET281      0.2287
    110  O         34.4770   67.1390   37.8670 O.2   281  MET281     -0.2864
    111  CB        33.0160   66.9770   34.9000 C.3   281  MET281      0.0413
    112  CG        31.5370   66.7180   34.6180 C.3   281  MET281      0.0598
    113  SD        31.2150   66.1670   32.9180 S.3   281  MET281     -0.1393
    114  CE        32.3410   64.7380   32.7810 C.3   281  MET281      0.0692
    115  N         31.8250   75.5920   40.2040 N.3   298  VAL298     -0.1245
    116  CA        32.2860   76.6030   39.2690 C.3   298  VAL298      0.1561
    117  C         31.5240   77.9130   39.4490 C.2   298  VAL298      0.2260
    118  O         30.3170   77.9950   39.2270 O.2   298  VAL298     -0.2867
    119  CB        32.1600   76.1150   37.8140 C.3   298  VAL298      0.0252
    120  CG1       33.2170   75.0680   37.5360 C.3   298  VAL298      0.0019
    121  CG2       30.7870   75.5140   37.5850 C.3   298  VAL298      0.0019
    122  N         36.4770   80.1750   37.8510 N.3   303  GLU303     -0.1245
    123  CA        36.7730   80.3560   36.4400 C.3   303  GLU303      0.1567
    124  C         37.8030   81.4590   36.2490 C.2   303  GLU303      0.2260
    125  O         38.6250   81.4010   35.3410 O.2   303  GLU303     -0.2867
    126  CB        35.5060   80.7260   35.6830 C.3   303  GLU303      0.0388
    127  CG        34.3810   79.7310   35.8480 C.3   303  GLU303      0.1160
    128  CD        33.0810   80.2520   35.2860 C.2   303  GLU303      0.3649
    129  OE1       32.0920   79.4860   35.2810 O.co2 303  GLU303     -0.2457
    130  OE2       33.0550   81.4300   34.8530 O.co2 303  GLU303     -0.2457
    131  N         35.3650   79.5070   30.0830 N.3   345  ALA345     -0.1245
    132  CA        33.9360   79.7900   30.0990 C.3   345  ALA345      0.1562
    133  C         33.5630   80.9240   29.1700 C.2   345  ALA345      0.2260
    134  O         32.5850   81.6330   29.4030 O.2   345  ALA345     -0.2867
    135  CB        33.4690   80.0860   31.5220 C.3   345  ALA345      0.0290
    136  N         18.2910   85.5830   32.4290 N.3   363  ILE363     -0.1245
    137  CA        17.4620   84.3900   32.2970 C.3   363  ILE363      0.1561
    138  C         16.0250   84.6150   32.7990 C.2   363  ILE363      0.2260
    139  O         15.8060   85.0510   33.9400 O.2   363  ILE363     -0.2867
    140  CB        18.0770   83.2040   33.0710 C.3   363  ILE363      0.0252
    141  CG1       19.4560   82.8660   32.4970 C.3   363  ILE363      0.0019
    142  CG2       17.1380   81.9980   33.0080 C.3   363  ILE363      0.0019
    143  CD1       20.1930   81.7700   33.2630 C.3   363  ILE363      0.0001
    144  N         13.2020   77.8080   32.2400 N.3   373  GLN373     -0.1231
    145  CA        13.9780   79.0500   32.1950 C.3   373  GLN373      0.1698
    146  C         14.7670   79.0710   30.8740 C.2   373  GLN373      0.2592
    147  O         14.9400   78.0340   30.2370 O.2   373  GLN373     -0.2718
    148  CB        14.9730   79.1140   33.3580 C.3   373  GLN373      0.0381
    149  CG        14.5500   78.4290   34.6540 C.3   373  GLN373      0.0905
    150  CD        13.7800   79.3330   35.5900 C.2   373  GLN373      0.2608
    151  OE1       14.1570   80.4800   35.8160 O.2   373  GLN373     -0.2717
    152  NE2       12.7050   78.8120   36.1580 N.am  373  GLN373     -0.0878
    153  N         15.2630   80.2410   30.4770 N.am  374  GLU374     -0.1966
    154  CA        16.0210   80.3890   29.2280 C.3   374  GLU374      0.1733
    155  C         16.6030   81.7910   29.1300 C.2   374  GLU374      0.2616
    156  O         15.9520   82.7580   29.5080 O.2   374  GLU374     -0.2715
    157  CB        15.0960   80.1580   28.0430 C.3   374  GLU374      0.0429
    158  CG        15.5940   80.7260   26.7270 C.3   374  GLU374      0.1163
    159  CD        14.5630   80.5890   25.6080 C.2   374  GLU374      0.3649
    160  OE1       14.8970   80.9080   24.4460 O.co2 374  GLU374     -0.2457
    161  OE2       13.4190   80.1680   25.8890 O.co2 374  GLU374     -0.2457
    162  N         17.8220   81.9230   28.6260 N.am  375  VAL375     -0.1977
    163  CA        18.4010   83.2590   28.5220 C.3   375  VAL375      0.1596
    164  C         17.6880   84.0040   27.3990 C.2   375  VAL375      0.2287
    165  O         17.4480   83.4360   26.3300 O.2   375  VAL375     -0.2864
    166  CB        19.9530   83.1960   28.3000 C.3   375  VAL375      0.0276
    167  CG1       20.3190   81.9140   27.5630 C.3   375  VAL375      0.0022
    168  CG2       20.4470   84.4350   27.5500 C.3   375  VAL375      0.0022
@<TRIPOS>BOND
     1    79    80    1
     2    79    78    1
     3    80    74    1
     4   160   159   ar
     5    78    75    1
     6    74    75    1
     7   159   161   ar
     8   159   158    1
     9    75    76    1
    10    59    57    1
    11    70    69    2
    12    56    57    2
    13    56    55    1
    14    71    72    1
    15    71    73    1
    16    71    68    1
    17    69    68    1
    18   165   164    2
    19    57    58    1
    20   158   157    1
    21    48    46    1
    22    76    77    2
    23    55    54    1
    24    68    67    1
    25    67    62   am
    26    47    46    1
    27    52    51    2
    28   164   163    1
    29   168   166    1
    30   167   166    1
    31    66    64    1
    32    46    45    1
    33    61    62    1
    34    61    64    1
    35    61    60    1
    36   157   154    1
    37    62    63    2
    38    54    53    1
    39   166   163    1
    40    51    60   am
    41    51    50    1
    42    64    65    1
    43   163   162    1
    44   162   155   am
    45    81    82    1
    46    53    50    1
    47    45    42    1
    48   155   154    1
    49   155   156    2
    50   133   134    2
    51   133   132    1
    52   154   153    1
    53   100    98   ar
    54    50    49    1
    55    49    43   am
    56    98    99   ar
    57    98    97    1
    58    85    82    1
    59    85    86    1
    60    96    97    1
    61    96    93    1
    62    43    42    1
    63    43    44    2
    64    82    83    1
    65   131   132    1
    66   132   135    1
    67    42    41    1
    68    92    83   am
    69    92    93    1
    70   147   146    2
    71   153   146   am
    72   146   145    1
    73    83    84    2
    74    93    94    1
    75    86    88   ar
    76    86    87   ar
    77    88    90   ar
    78    41    35   am
    79    94    95    2
    80    87    89   ar
    81   145   144    1
    82   145   148    1
    83   137   136    1
    84   137   138    1
    85   137   140    1
    86    36    35    2
    87   141   140    1
    88   141   143    1
    89    35    34    1
    90    90    91   ar
    91   114   113    1
    92   138   139    2
    93   113   112    1
    94   142   140    1
    95    89    91   ar
    96   148   149    1
    97    31    30    1
    98    29    28    2
    99    34    37    1
   100    34    33    1
   101    37    38    1
   102   101   102    1
   103    28    33   am
   104    28    27    1
   105   112   111    1
   106   106   105    1
   107   149   150    1
   108   130   128   ar
   109   111   108    1
   110   105   102    1
   111    30    27    1
   112    30    32    1
   113    26    27    1
   114   129   128   ar
   115   128   127    1
   116    17    15   am
   117   125   124    2
   118   107   108    1
   119   107   103   am
   120   102   103    1
   121   150   151    2
   122   150   152   am
   123   126   127    1
   124   126   123    1
   125    40    38    1
   126    38    39    1
   127   108   109    1
   128   103   104    2
   129   124   123    1
   130   123   122    1
   131    15    16    2
   132    15    14    1
   133   109   110    2
   134   120   119    1
   135   121   119    1
   136    14    11    1
   137    21    20    2
   138   119   116    1
   139     9     7   ar
   140    20    19    1
   141    11    10    1
   142    11    12    1
   143   118   117    2
   144   116   117    1
   145   116   115    1
   146     7     8   ar
   147     7     6    1
   148    25    23   ar
   149    22    19    1
   150    22    23    1
   151    19    18    1
   152    13    12    2
   153     5     6    1
   154     5     2    1
   155    23    24   ar
   156     4     3    2
   157     1     2    1
   158     2     3    1
