@<TRIPOS>MOLECULE
tmp/1jdtC00.pdb
 130 123 0 0 0
SMALL
GASTEIGER

@<TRIPOS>ATOM
      1  N         81.5110  121.1060   24.5580 N.3    20  GLY20      -0.1225
      2  CA        80.6270  119.9760   24.3380 C.3    20  GLY20       0.1811
      3  C         81.3470  118.6590   24.1290 C.2    20  GLY20       0.2280
      4  O         80.8860  117.6090   24.5750 O.2    20  GLY20      -0.2866
      5  N         80.0110  119.3120   28.3750 N.3    61  HIS61      -0.1226
      6  CA        78.5670  119.4490   28.5800 C.3    61  HIS61       0.1752
      7  C         77.6810  118.6650   27.6140 C.2    61  HIS61       0.2597
      8  O         76.4630  118.7120   27.7260 O.2    61  HIS61      -0.2718
      9  CB        78.1330  120.9320   28.5970 C.3    61  HIS61       0.0759
     10  CG        78.3740  121.6710   27.3160 C.ar   61  HIS61       0.0818
     11  ND1       77.7590  121.3350   26.1290 N.ar   61  HIS61      -0.2268
     12  CD2       79.1480  122.7500   27.0450 C.ar   61  HIS61       0.1154
     13  CE1       78.1430  122.1730   25.1830 C.ar   61  HIS61       0.1986
     14  NE2       78.9870  123.0420   25.7110 N.ar   61  HIS61      -0.2212
     15  N         78.2850  117.9350   26.6800 N.am   62  GLY62      -0.1942
     16  CA        77.4950  117.1670   25.7330 C.3    62  GLY62       0.2014
     17  C         76.7760  118.0220   24.6980 C.2    62  GLY62       0.2638
     18  O         77.1300  119.1790   24.4840 O.2    62  GLY62      -0.2714
     19  N         75.7470  117.4630   24.0670 N.am   63  ILE63      -0.1977
     20  CA        75.0110  118.1840   23.0390 C.3    63  ILE63       0.1596
     21  C         73.5650  118.5360   23.3790 C.2    63  ILE63       0.2287
     22  O         72.8060  117.6900   23.8500 O.2    63  ILE63      -0.2864
     23  CB        75.0100  117.3810   21.7170 C.3    63  ILE63       0.0276
     24  CG1       76.4420  117.2900   21.1700 C.3    63  ILE63       0.0022
     25  CG2       74.0630  118.0290   20.6990 C.3    63  ILE63       0.0022
     26  CD1       76.5860  116.3340   20.0140 C.3    63  ILE63       0.0001
     27  N         81.4060  129.2120   27.7450 N.3    85  ARG85      -0.1245
     28  CA        81.3080  128.1380   26.7710 C.3    85  ARG85       0.1563
     29  C         82.2290  128.4440   25.6020 C.2    85  ARG85       0.2260
     30  O         82.3130  129.5800   25.1350 O.2    85  ARG85      -0.2867
     31  CB        79.8600  127.9780   26.2800 C.3    85  ARG85       0.0307
     32  CG        79.6900  127.0040   25.1080 C.3    85  ARG85       0.0489
     33  CD        78.2170  126.6900   24.8130 C.3    85  ARG85       0.2205
     34  NE        77.9540  126.5430   23.3800 N.pl3  85  ARG85      -0.0865
     35  CZ        78.5490  125.6540   22.5840 C.cat  85  ARG85       0.5346
     36  NH1       79.4530  124.8130   23.0700 N.pl3  85  ARG85       0.1354
     37  NH2       78.2450  125.6090   21.2920 N.pl3  85  ARG85       0.1354
     38  N         81.8070  125.2480   18.8280 N.3    88  THR88      -0.1203
     39  CA        81.8620  125.4420   17.3890 C.3    88  THR88       0.1994
     40  C         80.4980  125.9170   16.9440 C.2    88  THR88       0.2619
     41  O         79.5060  125.7290   17.6500 O.2    88  THR88      -0.2717
     42  CB        82.1990  124.1420   16.6440 C.3    88  THR88       0.1784
     43  OG1       81.2760  123.1170   17.0340 O.3    88  THR88      -0.2211
     44  CG2       83.6150  123.7140   16.9630 C.3    88  THR88       0.0376
     45  N         80.4520  126.5140   15.7620 N.am   89  THR89      -0.1938
     46  CA        79.2090  127.0480   15.2530 C.3    89  THR89       0.2028
     47  C         79.2040  127.1000   13.7350 C.2    89  THR89       0.2642
     48  O         80.2500  126.9970   13.0900 O.2    89  THR89      -0.2714
     49  CB        78.9870  128.4850   15.7930 C.3    89  THR89       0.1808
     50  OG1       77.7460  129.0030   15.3040 O.3    89  THR89      -0.2208
     51  CG2       80.1210  129.4090   15.3360 C.3    89  THR89       0.0379
     52  N         78.0110  127.2570   13.1760 N.am   90  GLY90      -0.1954
     53  CA        77.8760  127.3780   11.7420 C.3    90  GLY90       0.1869
     54  C         77.4900  128.8210   11.4740 C.2    90  GLY90       0.2309
     55  O         76.4830  129.3020   11.9990 O.2    90  GLY90      -0.2863
     56  N         69.5240  119.6900   15.0260 N.3   159  PHE159     -0.1241
     57  CA        70.6450  119.8190   14.1100 C.3   159  PHE159      0.1605
     58  C         70.2690  119.4180   12.6870 C.2   159  PHE159      0.2264
     59  O         70.6310  120.1070   11.7360 O.2   159  PHE159     -0.2867
     60  CB        71.8010  118.9360   14.5820 C.3   159  PHE159      0.0534
     61  CG        73.0770  119.1320   13.8110 C.ar  159  PHE159     -0.0203
     62  CD1       73.9890  120.1150   14.1890 C.ar  159  PHE159     -0.0042
     63  CD2       73.3820  118.3160   12.7210 C.ar  159  PHE159     -0.0042
     64  CE1       75.1930  120.2840   13.4960 C.ar  159  PHE159     -0.0003
     65  CE2       74.5760  118.4730   12.0200 C.ar  159  PHE159     -0.0003
     66  CZ        75.4860  119.4570   12.4040 C.ar  159  PHE159     -0.0000
     67  N         67.3550  121.8910   10.4700 N.3   162  GLU162     -0.1245
     68  CA        67.8830  123.1380    9.8900 C.3   162  GLU162      0.1567
     69  C         67.9270  123.1200    8.3570 C.2   162  GLU162      0.2260
     70  O         68.9880  122.9490    7.7470 O.2   162  GLU162     -0.2867
     71  CB        69.2910  123.4010   10.4480 C.3   162  GLU162      0.0388
     72  CG        69.3150  123.6810   11.9510 C.3   162  GLU162      0.1160
     73  CD        70.7090  123.5940   12.5540 C.2   162  GLU162      0.3649
     74  OE1       71.7040  123.7850   11.8150 O.co2 162  GLU162     -0.2457
     75  OE2       70.8080  123.3460   13.7750 O.co2 162  GLU162     -0.2457
     76  N         74.5990  129.6590   14.1330 N.3   178  VAL178     -0.1231
     77  CA        73.6950  128.6890   14.7250 C.3   178  VAL178      0.1692
     78  C         74.5160  127.7210   15.5710 C.2   178  VAL178      0.2592
     79  O         75.5800  127.2460   15.1650 O.2   178  VAL178     -0.2718
     80  CB        72.8940  127.9090   13.6440 C.3   178  VAL178      0.0266
     81  CG1       73.8320  127.1340   12.7390 C.3   178  VAL178      0.0020
     82  CG2       71.8970  126.9640   14.3130 C.3   178  VAL178      0.0020
     83  N         74.0020  127.4310   16.7540 N.am  179  GLU179     -0.1966
     84  CA        74.6680  126.5520   17.7020 C.3   179  GLU179      0.1733
     85  C         73.5330  125.8570   18.4740 C.2   179  GLU179      0.2616
     86  O         72.3800  126.0240   18.1000 O.2   179  GLU179     -0.2715
     87  CB        75.5780  127.4370   18.5690 C.3   179  GLU179      0.0429
     88  CG        75.9940  126.8820   19.8710 C.3   179  GLU179      0.1163
     89  CD        75.1350  127.3920   20.9910 C.2   179  GLU179      0.3649
     90  OE1       74.0750  128.0080   20.7090 O.co2 179  GLU179     -0.2457
     91  OE2       75.5250  127.1650   22.1530 O.co2 179  GLU179     -0.2457
     92  N         73.8110  125.0940   19.5260 N.am  180  MET180     -0.1963
     93  CA        72.7020  124.4160   20.2050 C.3   180  MET180      0.1736
     94  C         72.5150  124.6160   21.7030 C.2   180  MET180      0.2616
     95  O         71.5120  124.1620   22.2610 O.2   180  MET180     -0.2715
     96  CB        72.7640  122.9100   19.9370 C.3   180  MET180      0.0427
     97  CG        72.6940  122.5380   18.4620 C.3   180  MET180      0.0599
     98  SD        72.7310  120.7640   18.1880 S.3   180  MET180     -0.1393
     99  CE        71.0940  120.2920   18.7360 C.3   180  MET180      0.0692
    100  N         73.4470  125.2770   22.3750 N.am  181  GLU181     -0.1977
    101  CA        73.2500  125.4250   23.8010 C.3   181  GLU181      0.1602
    102  C         73.3540  126.8010   24.4660 C.2   181  GLU181      0.2287
    103  O         73.0850  126.9120   25.6580 O.2   181  GLU181     -0.2864
    104  CB        74.1110  124.3910   24.5540 C.3   181  GLU181      0.0415
    105  CG        75.5070  124.0990   24.0210 C.3   181  GLU181      0.1163
    106  CD        75.5400  123.2310   22.7570 C.2   181  GLU181      0.3649
    107  OE1       74.9210  122.1430   22.7030 O.co2 181  GLU181     -0.2457
    108  OE2       76.2190  123.6450   21.8070 O.co2 181  GLU181     -0.2457
    109  N         83.0400  126.5070   12.4810 N.3   203  SER203     -0.1202
    110  CA        83.4070  125.2150   11.9050 C.3   203  SER203      0.2020
    111  C         82.7960  124.9440   10.5360 C.2   203  SER203      0.2618
    112  O         83.1610  123.9790    9.8700 O.2   203  SER203     -0.2717
    113  CB        83.0110  124.0920   12.8600 C.3   203  SER203      0.2103
    114  OG        81.6070  124.0480   13.0520 O.3   203  SER203     -0.2182
    115  N         81.8580  125.7910   10.1250 N.am  204  ASP204     -0.1973
    116  CA        81.2000  125.6440    8.8370 C.3   204  ASP204      0.1709
    117  C         80.3740  126.8920    8.5500 C.2   204  ASP204      0.2293
    118  O         79.9790  127.6100    9.4680 O.2   204  ASP204     -0.2864
    119  CB        80.3170  124.3790    8.8290 C.3   204  ASP204      0.1436
    120  CG        79.2630  124.3740    9.9420 C.2   204  ASP204      0.3671
    121  OD1       78.0620  124.5380    9.6240 O.co2 204  ASP204     -0.2456
    122  OD2       79.6260  124.2030   11.1340 O.co2 204  ASP204     -0.2456
    123  N         76.9710  127.9260    6.6710 N.3   206  LEU206     -0.1245
    124  CA        75.7380  127.5000    6.0180 C.3   206  LEU206      0.1561
    125  C         75.3350  128.4130    4.8710 C.2   206  LEU206      0.2260
    126  O         74.4670  128.0700    4.0730 O.2   206  LEU206     -0.2867
    127  CB        74.5900  127.4250    7.0310 C.3   206  LEU206      0.0270
    128  CG        74.5310  126.2150    7.9670 C.3   206  LEU206      0.0019
    129  CD1       75.6730  126.2700    8.9650 C.3   206  LEU206      0.0001
    130  CD2       73.1810  126.2030    8.6960 C.3   206  LEU206      0.0001
@<TRIPOS>BOND
     1   126   125    2
     2   125   124    1
     3   124   123    1
     4   124   127    1
     5   127   128    1
     6    70    69    2
     7   128   130    1
     8   128   129    1
     9    69    68    1
    10   117   116    1
    11   117   118    2
    12   119   116    1
    13   119   120    1
    14   116   115    1
    15   121   120   ar
    16   112   111    2
    17    68    71    1
    18    68    67    1
    19   120   122   ar
    20   115   111   am
    21    71    72    1
    22   111   110    1
    23    54    53    1
    24    54    55    2
    25    59    58    2
    26    53    52    1
    27    74    73   ar
    28   110   109    1
    29   110   113    1
    30    72    73    1
    31    65    66   ar
    32    65    63   ar
    33    66    64   ar
    34    73    75   ar
    35    58    57    1
    36    63    61   ar
    37    81    80    1
    38   113   114    1
    39    48    47    2
    40    52    47   am
    41    64    62   ar
    42    80    82    1
    43    80    77    1
    44    47    46    1
    45    61    62   ar
    46    61    60    1
    47    57    60    1
    48    57    56    1
    49    76    77    1
    50    77    78    1
    51    79    78    2
    52    46    45    1
    53    46    49    1
    54    50    49    1
    55    51    49    1
    56    78    83   am
    57    45    40   am
    58    42    44    1
    59    42    43    1
    60    42    39    1
    61    83    84    1
    62    40    39    1
    63    40    41    2
    64    39    38    1
    65    84    85    1
    66    84    87    1
    67    86    85    2
    68    98    97    1
    69    98    99    1
    70    97    96    1
    71    85    92   am
    72    87    88    1
    73    92    93    1
    74    88    89    1
    75    96    93    1
    76    26    24    1
    77    93    94    1
    78    25    23    1
    79    90    89   ar
    80    89    91   ar
    81    24    23    1
    82    37    35    1
    83    94    95    2
    84    94   100   am
    85    23    20    1
    86   108   106   ar
    87   100   101    1
    88    35    36    1
    89    35    34    2
    90   107   106   ar
    91   106   105    1
    92    20    21    1
    93    20    19    1
    94    21    22    2
    95    34    33    1
    96   101   102    1
    97   101   104    1
    98   105   104    1
    99    19    17   am
   100     3     2    1
   101     3     4    2
   102     2     1    1
   103   102   103    2
   104    18    17    2
   105    17    16    1
   106    33    32    1
   107    32    31    1
   108    30    29    2
   109    13    14   ar
   110    13    11   ar
   111    29    28    1
   112    14    12   ar
   113    16    15    1
   114    11    10   ar
   115    31    28    1
   116    15     7   am
   117    28    27    1
   118    12    10   ar
   119    10     9    1
   120     7     8    2
   121     7     6    1
   122     5     6    1
   123     6     9    1
