@<TRIPOS>MOLECULE
tmp/1jdvE00.pdb
 130 123 0 0 0
SMALL
GASTEIGER

@<TRIPOS>ATOM
      1  N         25.1650  -15.5580   78.5470 N.3    20  GLY20      -0.1225
      2  CA        23.7500  -15.3510   78.7970 C.3    20  GLY20       0.1811
      3  C         22.9670  -14.7730   77.6400 C.2    20  GLY20       0.2280
      4  O         21.7970  -15.0980   77.4480 O.2    20  GLY20      -0.2866
      5  N         22.7340  -19.2800   77.8630 N.3    61  HIS61      -0.1226
      6  CA        22.1120  -19.7970   79.0800 C.3    61  HIS61       0.1752
      7  C         20.9820  -18.9510   79.6720 C.2    61  HIS61       0.2597
      8  O         20.3800  -19.3300   80.6730 O.2    61  HIS61      -0.2718
      9  CB        23.1760  -20.1050   80.1550 C.3    61  HIS61       0.0759
     10  CG        23.9160  -18.9050   80.6660 C.ar   61  HIS61       0.0818
     11  ND1       23.2800  -17.8120   81.2170 N.ar   61  HIS61      -0.2268
     12  CD2       25.2440  -18.6560   80.7680 C.ar   61  HIS61       0.1154
     13  CE1       24.1850  -16.9450   81.6390 C.ar   61  HIS61       0.1986
     14  NE2       25.3840  -17.4330   81.3790 N.ar   61  HIS61      -0.2212
     15  N         20.6770  -17.8190   79.0480 N.am   62  GLY62      -0.1942
     16  CA        19.6040  -16.9820   79.5530 C.3    62  GLY62       0.2014
     17  C         19.9610  -16.3110   80.8680 C.2    62  GLY62       0.2638
     18  O         21.1170  -16.3270   81.2870 O.2    62  GLY62      -0.2714
     19  N         18.9680  -15.7460   81.5390 N.am   63  ILE63      -0.1977
     20  CA        19.2140  -15.0430   82.7950 C.3    63  ILE63       0.1596
     21  C         18.7590  -15.7610   84.0600 C.2    63  ILE63       0.2287
     22  O         17.6210  -16.2340   84.1420 O.2    63  ILE63      -0.2864
     23  CB        18.5270  -13.6630   82.7920 C.3    63  ILE63       0.0276
     24  CG1       19.0900  -12.8040   81.6610 C.3    63  ILE63       0.0022
     25  CG2       18.7400  -12.9620   84.1410 C.3    63  ILE63       0.0022
     26  CD1       18.4160  -11.4510   81.5520 C.3    63  ILE63       0.0001
     27  N         31.9290  -19.8050   81.7960 N.3    85  ARG85      -0.1245
     28  CA        30.9650  -18.7340   81.5940 C.3    85  ARG85       0.1563
     29  C         31.7020  -17.4310   81.2980 C.2    85  ARG85       0.2260
     30  O         32.7110  -17.1060   81.9380 O.2    85  ARG85      -0.2867
     31  CB        30.0850  -18.5720   82.8410 C.3    85  ARG85       0.0307
     32  CG        29.1400  -17.3810   82.8030 C.3    85  ARG85       0.0489
     33  CD        28.1680  -17.3870   83.9840 C.3    85  ARG85       0.2205
     34  NE        27.8840  -16.0410   84.4790 N.pl3  85  ARG85      -0.0865
     35  CZ        27.4130  -15.0410   83.7350 C.cat  85  ARG85       0.5346
     36  NH1       27.1630  -15.2140   82.4440 N.pl3  85  ARG85       0.1354
     37  NH2       27.1970  -13.8540   84.2880 N.pl3  85  ARG85       0.1354
     38  N         28.8370  -10.4570   81.8650 N.3    88  THR88      -0.1203
     39  CA        29.0330   -9.0640   82.2530 C.3    88  THR88       0.1994
     40  C         28.7410   -8.9330   83.7340 C.2    88  THR88       0.2619
     41  O         28.0310   -9.7570   84.3100 O.2    88  THR88      -0.2717
     42  CB        28.0830   -8.1310   81.4920 C.3    88  THR88       0.1784
     43  OG1       26.7300   -8.5020   81.7780 O.3    88  THR88      -0.2211
     44  CG2       28.3300   -8.2350   79.9980 C.3    88  THR88       0.0376
     45  N         29.2720   -7.8880   84.3500 N.am   89  THR89      -0.1938
     46  CA        29.0630   -7.7090   85.7730 C.3    89  THR89       0.2028
     47  C         29.1830   -6.2600   86.2160 C.2    89  THR89       0.2642
     48  O         29.7420   -5.4240   85.5060 O.2    89  THR89      -0.2714
     49  CB        30.0920   -8.5430   86.5620 C.3    89  THR89       0.1808
     50  OG1       29.8880   -8.3590   87.9650 O.3    89  THR89      -0.2208
     51  CG2       31.5150   -8.1120   86.1980 C.3    89  THR89       0.0379
     52  N         28.6480   -5.9790   87.4000 N.am   90  GLY90      -0.1954
     53  CA        28.7280   -4.6470   87.9630 C.3    90  GLY90       0.1869
     54  C         29.7430   -4.6620   89.0940 C.2    90  GLY90       0.2309
     55  O         29.5660   -5.3750   90.0850 O.2    90  GLY90      -0.2863
     56  N         17.6550   -8.6450   90.2500 N.3   159  PHE159     -0.1241
     57  CA        18.3320   -7.5220   89.6170 C.3   159  PHE159      0.1605
     58  C         17.8130   -6.1730   90.1180 C.2   159  PHE159      0.2264
     59  O         18.6020   -5.2880   90.4560 O.2   159  PHE159     -0.2867
     60  CB        18.1530   -7.6050   88.0970 C.3   159  PHE159      0.0534
     61  CG        18.9570   -6.5940   87.3320 C.ar  159  PHE159     -0.0203
     62  CD1       20.2770   -6.8570   86.9830 C.ar  159  PHE159     -0.0042
     63  CD2       18.3970   -5.3690   86.9690 C.ar  159  PHE159     -0.0042
     64  CE1       21.0330   -5.9190   86.2820 C.ar  159  PHE159     -0.0003
     65  CE2       19.1430   -4.4220   86.2670 C.ar  159  PHE159     -0.0003
     66  CZ        20.4630   -4.6960   85.9230 C.ar  159  PHE159     -0.0000
     67  N         18.7500   -4.1790   94.0170 N.3   162  GLU162     -0.1245
     68  CA        20.1660   -3.9300   94.3270 C.3   162  GLU162      0.1567
     69  C         20.4920   -2.4610   94.6430 C.2   162  GLU162      0.2260
     70  O         21.2510   -1.8150   93.9160 O.2   162  GLU162     -0.2867
     71  CB        21.0320   -4.4000   93.1500 C.3   162  GLU162      0.0388
     72  CG        21.0740   -5.9140   92.9660 C.3   162  GLU162      0.1160
     73  CD        21.6810   -6.3330   91.6340 C.2   162  GLU162      0.3649
     74  OE1       22.5680   -5.6160   91.1200 O.co2 162  GLU162     -0.2457
     75  OE2       21.2760   -7.3920   91.1070 O.co2 162  GLU162     -0.2457
     76  N         29.0240   -8.0620   91.1630 N.3   178  VAL178     -0.1231
     77  CA        27.7400   -8.7450   91.2410 C.3   178  VAL178      0.1692
     78  C         27.2490   -9.2130   89.8650 C.2   178  VAL178      0.2592
     79  O         27.3490   -8.4930   88.8620 O.2   178  VAL178     -0.2718
     80  CB        26.6570   -7.8310   91.8600 C.3   178  VAL178      0.0266
     81  CG1       26.5280   -6.5520   91.0440 C.3   178  VAL178      0.0020
     82  CG2       25.3140   -8.5570   91.9130 C.3   178  VAL178      0.0020
     83  N         26.7380  -10.4350   89.8230 N.am  179  GLU179     -0.1966
     84  CA        26.1880  -10.9960   88.5990 C.3   179  GLU179      0.1733
     85  C         25.0600  -11.9280   89.0370 C.2   179  GLU179      0.2616
     86  O         24.5900  -11.8070   90.1740 O.2   179  GLU179     -0.2715
     87  CB        27.2800  -11.6880   87.7660 C.3   179  GLU179      0.0429
     88  CG        28.1640  -12.6730   88.4930 C.3   179  GLU179      0.1163
     89  CD        27.5400  -14.0570   88.5800 C.2   179  GLU179      0.3649
     90  OE1       27.2220  -14.6370   87.5230 O.co2 179  GLU179     -0.2457
     91  OE2       27.3670  -14.5590   89.7070 O.co2 179  GLU179     -0.2457
     92  N         24.6100  -12.8440   88.1850 N.am  180  MET180     -0.1963
     93  CA        23.4830  -13.6900   88.5870 C.3   180  MET180      0.1736
     94  C         23.5510  -15.2140   88.4000 C.2   180  MET180      0.2616
     95  O         22.6480  -15.9210   88.8450 O.2   180  MET180     -0.2715
     96  CB        22.2090  -13.1710   87.8990 C.3   180  MET180      0.0427
     97  CG        21.8660  -11.7110   88.2240 C.3   180  MET180      0.0599
     98  SD        20.4110  -11.0610   87.3330 S.3   180  MET180     -0.1393
     99  CE        19.0940  -11.9410   88.1870 C.3   180  MET180      0.0692
    100  N         24.6100  -15.7320   87.7900 N.am  181  GLU181     -0.1977
    101  CA        24.6680  -17.1690   87.5310 C.3   181  GLU181      0.1602
    102  C         25.8380  -17.9840   88.0800 C.2   181  GLU181      0.2287
    103  O         25.7850  -19.2200   88.0660 O.2   181  GLU181     -0.2864
    104  CB        24.5970  -17.4160   86.0150 C.3   181  GLU181      0.0415
    105  CG        23.3240  -16.9400   85.3140 C.3   181  GLU181      0.1163
    106  CD        23.3400  -15.4590   84.9570 C.2   181  GLU181      0.3649
    107  OE1       24.4390  -14.9010   84.7460 O.co2 181  GLU181     -0.2457
    108  OE2       22.2460  -14.8570   84.8630 O.co2 181  GLU181     -0.2457
    109  N         30.6240   -4.1530   83.0520 N.3   203  SER203     -0.1202
    110  CA        29.7500   -3.2950   82.2590 C.3   203  SER203      0.2020
    111  C         29.3260   -2.0550   83.0510 C.2   203  SER203      0.2618
    112  O         28.9950   -1.0260   82.4680 O.2   203  SER203     -0.2717
    113  CB        28.5100   -4.0700   81.8130 C.3   203  SER203      0.2103
    114  OG        27.7100   -4.4390   82.9250 O.3   203  SER203     -0.2182
    115  N         29.3360   -2.1610   84.3760 N.am  204  ASP204     -0.1973
    116  CA        28.9640   -1.0420   85.2400 C.3   204  ASP204      0.1709
    117  C         29.6770   -1.0820   86.5950 C.2   204  ASP204      0.2293
    118  O         30.1090   -2.1410   87.0490 O.2   204  ASP204     -0.2864
    119  CB        27.4370   -1.0010   85.4420 C.3   204  ASP204      0.1436
    120  CG        26.8440   -2.3500   85.8770 C.2   204  ASP204      0.3671
    121  OD1       26.9660   -3.3450   85.1240 O.co2 204  ASP204     -0.2456
    122  OD2       26.2350   -2.4150   86.9710 O.co2 204  ASP204     -0.2456
    123  N         28.9840    0.0670   90.4510 N.3   206  LEU206     -0.1245
    124  CA        28.0030    0.5580   91.4110 C.3   206  LEU206      0.1561
    125  C         28.6300    1.3770   92.5360 C.2   206  LEU206      0.2260
    126  O         27.9240    2.0780   93.2600 O.2   206  LEU206     -0.2867
    127  CB        27.2180   -0.6190   92.0120 C.3   206  LEU206      0.0270
    128  CG        26.3570   -1.4840   91.0800 C.3   206  LEU206      0.0019
    129  CD1       27.2270   -2.1790   90.0560 C.3   206  LEU206      0.0001
    130  CD2       25.6030   -2.5160   91.8930 C.3   206  LEU206      0.0001
@<TRIPOS>BOND
     1     4     3    2
     2     3     2    1
     3     5     6    1
     4     1     2    1
     5    15    16    1
     6    15     7   am
     7     6     7    1
     8     6     9    1
     9    16    17    1
    10     7     8    2
    11    44    42    1
    12     9    10    1
    13    10    12   ar
    14    10    11   ar
    15    12    14   ar
    16    17    18    2
    17    17    19   am
    18    11    13   ar
    19    29    28    1
    20    29    30    2
    21    14    13   ar
    22    42    43    1
    23    42    39    1
    24    19    20    1
    25    26    24    1
    26    28    27    1
    27    28    31    1
    28    24    23    1
    29   113   110    1
    30   113   114    1
    31    38    39    1
    32    39    40    1
    33   110   111    1
    34   110   109    1
    35    36    35    1
    36   112   111    2
    37    23    20    1
    38    23    25    1
    39    20    21    1
    40    32    31    1
    41    32    33    1
    42   111   115   am
    43    40    41    2
    44    40    45   am
    45    35    37    1
    46    35    34    2
    47    33    34    1
    48    21    22    2
    49    45    46    1
    50   115   116    1
    51   107   106   ar
    52   108   106   ar
    53   106   105    1
    54   121   120   ar
    55   116   119    1
    56   116   117    1
    57   105   104    1
    58   119   120    1
    59    48    47    2
    60    46    47    1
    61    46    49    1
    62   120   122   ar
    63    66    65   ar
    64    66    64   ar
    65   104   101    1
    66    51    49    1
    67    47    52   am
    68    65    63   ar
    69    64    62   ar
    70    49    50    1
    71   117   118    2
    72    63    61   ar
    73    62    61   ar
    74    61    60    1
    75    98    99    1
    76    98    97    1
    77    52    53    1
    78    90    89   ar
    79   101   100    1
    80   101   102    1
    81    87    88    1
    82    87    84    1
    83   100    94   am
    84    96    97    1
    85    96    93    1
    86    53    54    1
    87   103   102    2
    88    60    57    1
    89    92    93    1
    90    92    85   am
    91    94    93    1
    92    94    95    2
    93    88    89    1
    94    89    91   ar
    95    84    85    1
    96    84    83    1
    97    79    78    2
    98    85    86    2
    99    54    55    2
   100    57    58    1
   101    57    56    1
   102    83    78   am
   103    78    77    1
   104   129   128    1
   105    58    59    2
   106   123   124    1
   107    81    80    1
   108   128   130    1
   109   128   127    1
   110    75    73   ar
   111    74    73   ar
   112    76    77    1
   113    77    80    1
   114   124   127    1
   115   124   125    1
   116    73    72    1
   117    80    82    1
   118   125   126    2
   119    72    71    1
   120    71    68    1
   121    70    69    2
   122    67    68    1
   123    68    69    1
