@<TRIPOS>MOLECULE
tmp/1jdxA00.pdb
 145 139 0 0 0
SMALL
GASTEIGER

@<TRIPOS>ATOM
      1  N         48.9780   79.3300    9.5040 N.3    35  ASN35      -0.1240
      2  CA        48.6630   78.6980   10.7790 C.3    35  ASN35       0.1653
      3  C         48.9230   79.5780   12.0120 C.2    35  ASN35       0.2266
      4  O         48.3310   79.3750   13.0700 O.2    35  ASN35      -0.2867
      5  CB        49.4770   77.4200   10.9290 C.3    35  ASN35       0.1155
      6  CG        49.1540   76.6870   12.2060 C.2    35  ASN35       0.2627
      7  OD1       48.0370   76.2020   12.3740 O.2    35  ASN35      -0.2716
      8  ND2       50.1120   76.6150   13.1200 N.am   35  ASN35      -0.0877
      9  N         49.0050   82.6980   14.6460 N.3    37  TYR37      -0.1241
     10  CA        48.1910   83.7820   15.1830 C.3    37  TYR37       0.1605
     11  C         49.0220   85.0560   15.1210 C.2    37  TYR37       0.2264
     12  O         50.1940   85.0450   15.4910 O.2    37  TYR37      -0.2867
     13  CB        47.8130   83.5010   16.6350 C.3    37  TYR37       0.0534
     14  CG        46.6460   82.5540   16.8130 C.ar   37  TYR37      -0.0201
     15  CD1       46.8040   81.1770   16.6680 C.ar   37  TYR37      -0.0009
     16  CD2       45.3800   83.0370   17.1300 C.ar   37  TYR37      -0.0009
     17  CE1       45.7210   80.3000   16.8350 C.ar   37  TYR37       0.0417
     18  CE2       44.2940   82.1740   17.3000 C.ar   37  TYR37       0.0417
     19  CZ        44.4690   80.8050   17.1470 C.ar   37  TYR37       0.1957
     20  OH        43.3900   79.9490   17.2880 O.3    37  TYR37      -0.2866
     21  N         35.4940   76.3850   10.9950 N.3   235  ASP235     -0.1239
     22  CA        36.8710   76.6370   11.4250 C.3   235  ASP235      0.1674
     23  C         37.6340   77.3140   10.2640 C.2   235  ASP235      0.2266
     24  O         37.7690   76.7250    9.1790 O.2   235  ASP235     -0.2867
     25  CB        37.5120   75.2720   11.7650 C.3   235  ASP235      0.1410
     26  CG        38.9080   75.3760   12.3720 C.2   235  ASP235      0.3668
     27  OD1       39.5570   76.4330   12.2930 O.co2 235  ASP235     -0.2456
     28  OD2       39.3720   74.3670   12.9350 O.co2 235  ASP235     -0.2456
     29  N         40.8370   78.1320   10.2530 N.3   237  ASN237     -0.1226
     30  CA        42.2220   77.6870   10.2240 C.3   237  ASN237      0.1770
     31  C         42.3910   76.2410   10.7280 C.2   237  ASN237      0.2439
     32  O         43.0340   75.9820   11.7540 O.2   237  ASN237     -0.2733
     33  CB        43.1100   78.6280   11.0270 C.3   237  ASN237      0.1168
     34  CG        44.5630   78.1950   11.0080 C.2   237  ASN237      0.2627
     35  OD1       45.0630   77.7200    9.9840 O.2   237  ASN237     -0.2716
     36  ND2       45.2320   78.2990   12.1480 N.am  237  ASN237     -0.0877
     37  N         41.7890   75.2750   10.0240 N.am  238  PRO238     -0.2718
     38  CA        41.9250   73.8880   10.4640 C.3   238  PRO238      0.1535
     39  C         43.2900   73.2580   10.1440 C.2   238  PRO238      0.2598
     40  O         43.8590   73.4590    9.0710 O.2   238  PRO238     -0.2715
     41  CB        40.8050   73.1890    9.6920 C.3   238  PRO238      0.0310
     42  CG        40.7800   73.9410    8.4030 C.3   238  PRO238      0.0237
     43  CD        40.8840   75.3740    8.8630 C.3   238  PRO238      0.0939
     44  N         43.8040   72.4980   11.0960 N.am  239  MET239     -0.1964
     45  CA        45.0480   71.7690   10.9400 C.3   239  MET239      0.1736
     46  C         44.9580   70.7280   12.0340 C.2   239  MET239      0.2616
     47  O         45.2170   71.0160   13.2010 O.2   239  MET239     -0.2715
     48  CB        46.2800   72.6490   11.1200 C.3   239  MET239      0.0427
     49  CG        47.5750   71.8460   11.0360 C.3   239  MET239      0.0599
     50  SD        49.1100   72.7960   10.9700 S.3   239  MET239     -0.1393
     51  CE        49.7210   72.6900   12.6410 C.3   239  MET239      0.0692
     52  N         44.5700   69.5240   11.6360 N.am  240  HIS240     -0.1973
     53  CA        44.3880   68.3900   12.5440 C.3   240  HIS240      0.1656
     54  C         42.9760   68.4360   13.1090 C.2   240  HIS240      0.2291
     55  O         42.4080   69.5220   13.3190 O.2   240  HIS240     -0.2864
     56  CB        45.4770   68.3410   13.6230 C.3   240  HIS240      0.0771
     57  CG        46.8610   68.3770   13.0560 C.ar  240  HIS240      0.0820
     58  ND1       47.9590   68.8180   13.7670 N.ar  240  HIS240     -0.2267
     59  CD2       47.3260   68.0820   11.8090 C.ar  240  HIS240      0.1154
     60  CE1       49.0300   68.7930   12.9980 C.ar  240  HIS240      0.1986
     61  NE2       48.6710   68.3500   11.8010 N.ar  240  HIS240     -0.2212
     62  N         41.8750   66.3200   15.8870 N.3   242  ASP242     -0.1225
     63  CA        41.8260   65.9150   17.3010 C.3   242  ASP242      0.1805
     64  C         41.6280   66.9400   18.4220 C.2   242  ASP242      0.2597
     65  O         41.7000   66.5840   19.5920 O.2   242  ASP242     -0.2718
     66  CB        42.9520   64.9250   17.6520 C.3   242  ASP242      0.1424
     67  CG        44.3500   65.4000   17.2230 C.2   242  ASP242      0.3668
     68  OD1       44.4960   66.3920   16.4640 O.co2 242  ASP242     -0.2456
     69  OD2       45.3290   64.7420   17.6360 O.co2 242  ASP242     -0.2456
     70  N         41.3890   68.1970   18.0630 N.am  243  ALA243     -0.1979
     71  CA        41.1000   69.2510   19.0270 C.3   243  ALA243      0.1597
     72  C         39.8140   69.9050   18.5090 C.2   243  ALA243      0.2287
     73  O         39.5040   71.0650   18.8100 O.2   243  ALA243     -0.2864
     74  CB        42.2220   70.2550   19.0890 C.3   243  ALA243      0.0319
     75  N         33.7690   74.8890   17.1300 N.3   259  ARG259     -0.1245
     76  CA        33.9090   74.2940   15.8120 C.3   259  ARG259      0.1563
     77  C         32.8680   73.2110   15.5660 C.2   259  ARG259      0.2260
     78  O         33.1710   72.0190   15.6020 O.2   259  ARG259     -0.2867
     79  CB        35.3180   73.7250   15.6830 C.3   259  ARG259      0.0307
     80  CG        36.4060   74.7530   15.9610 C.3   259  ARG259      0.0489
     81  CD        37.7730   74.0950   16.0530 C.3   259  ARG259      0.2205
     82  NE        38.8190   75.0640   16.3820 N.pl3 259  ARG259     -0.0865
     83  CZ        40.0050   74.7650   16.9150 C.cat 259  ARG259      0.5346
     84  NH1       40.3270   73.5080   17.1970 N.pl3 259  ARG259      0.1354
     85  NH2       40.8810   75.7310   17.1560 N.pl3 259  ARG259      0.1354
     86  N         52.0640   77.1690   18.2710 N.3   290  MET290     -0.1230
     87  CA        51.5340   76.3510   17.1910 C.3   290  MET290      0.1702
     88  C         50.0400   76.0150   17.1540 C.2   290  MET290      0.2593
     89  O         49.5820   75.4200   16.1670 O.2   290  MET290     -0.2718
     90  CB        52.3190   75.0300   17.1570 C.3   290  MET290      0.0401
     91  CG        53.7760   75.1090   16.7110 C.3   290  MET290      0.0596
     92  SD        53.8890   75.0400   14.9190 S.3   290  MET290     -0.1393
     93  CE        53.1400   73.4350   14.5250 C.3   290  MET290      0.0692
     94  N         49.2660   76.4020   18.1640 N.am  291  SER291     -0.1938
     95  CA        47.8480   76.0300   18.1730 C.3   291  SER291      0.2055
     96  C         46.9590   76.9910   18.9410 C.2   291  SER291      0.2643
     97  O         47.3670   78.1060   19.2710 O.2   291  SER291     -0.2714
     98  CB        47.6940   74.6450   18.7980 C.3   291  SER291      0.2130
     99  OG        48.0380   74.6970   20.1790 O.3   291  SER291     -0.2179
    100  N         45.7420   76.5320   19.2130 N.am  292  SER292     -0.1949
    101  CA        44.7720   77.2830   19.9770 C.3   292  SER292      0.1924
    102  C         44.7820   76.7350   21.4030 C.2   292  SER292      0.2314
    103  O         45.5210   75.8010   21.7240 O.2   292  SER292     -0.2863
    104  CB        43.3730   77.1170   19.3780 C.3   292  SER292      0.2116
    105  OG        42.7850   75.8790   19.7610 O.3   292  SER292     -0.2180
    106  N         42.4600   75.0910   22.7160 N.3   294  TRP294     -0.1227
    107  CA        41.7090   73.8480   22.7540 C.3   294  TRP294      0.1737
    108  C         42.4270   72.5230   22.9240 C.2   294  TRP294      0.2595
    109  O         41.8200   71.4590   22.8080 O.2   294  TRP294     -0.2718
    110  CB        40.7070   73.8160   21.6190 C.3   294  TRP294      0.0564
    111  CG        39.5370   74.6870   21.9140 C.ar  294  TRP294      0.0003
    112  CD1       39.2770   75.9230   21.3970 C.ar  294  TRP294      0.0946
    113  CD2       38.4560   74.3900   22.8230 C.ar  294  TRP294      0.0152
    114  NE1       38.0970   76.4150   21.9250 N.ar  294  TRP294     -0.2442
    115  CE2       37.5750   75.4940   22.7990 C.ar  294  TRP294      0.0810
    116  CE3       38.1510   73.3010   23.6580 C.ar  294  TRP294      0.0012
    117  CZ2       36.4090   75.5400   23.5720 C.ar  294  TRP294      0.0191
    118  CZ3       36.9930   73.3490   24.4240 C.ar  294  TRP294      0.0001
    119  CH2       36.1370   74.4660   24.3740 C.ar  294  TRP294      0.0015
    120  N         43.7030   72.5890   23.2810 N.am  295  LEU295     -0.1980
    121  CA        44.5020   71.4020   23.5360 C.3   295  LEU295      0.1596
    122  C         43.9490   70.6340   24.7360 C.2   295  LEU295      0.2287
    123  O         44.2790   69.4590   24.9410 O.2   295  LEU295     -0.2864
    124  CB        45.9400   71.8100   23.8070 C.3   295  LEU295      0.0297
    125  CG        46.5860   72.4440   22.5860 C.3   295  LEU295      0.0022
    126  CD1       47.9820   72.8730   22.9370 C.3   295  LEU295      0.0001
    127  CD2       46.5920   71.4490   21.4260 C.3   295  LEU295      0.0001
    128  N         42.2530   67.5720   23.7360 N.3   298  ASN298     -0.1240
    129  CA        43.1450   66.7170   22.9710 C.3   298  ASN298      0.1653
    130  C         43.6390   65.6090   23.9190 C.2   298  ASN298      0.2266
    131  O         44.8360   65.3530   24.0480 O.2   298  ASN298     -0.2867
    132  CB        44.3190   67.5630   22.4500 C.3   298  ASN298      0.1155
    133  CG        45.1830   66.8210   21.4480 C.2   298  ASN298      0.2627
    134  OD1       46.4140   66.7920   21.5750 O.2   298  ASN298     -0.2716
    135  ND2       44.5440   66.2050   20.4440 N.am  298  ASN298     -0.0877
    136  N         52.5850   72.8780   20.3890 N.3   339  GLY339     -0.1225
    137  CA        51.4370   72.6210   19.5460 C.3   339  GLY339      0.1811
    138  C         50.5770   71.4200   19.8100 C.2   339  GLY339      0.2280
    139  O         49.6990   71.1380   19.0040 O.2   339  GLY339     -0.2866
    140  N         48.2000   64.3730   20.4960 N.3   344  CYS344     -0.1235
    141  CA        49.2050   64.8120   19.5380 C.3   344  CYS344      0.1677
    142  C         50.6000   64.2970   19.8280 C.2   344  CYS344      0.2270
    143  O         51.3460   63.9640   18.9100 O.2   344  CYS344     -0.2867
    144  CB        49.2770   66.3370   19.4810 C.3   344  CYS344      0.0956
    145  SG        47.7920   67.1380   18.8890 S.3   344  CYS344     -0.0801
@<TRIPOS>BOND
     1    42    43    1
     2    42    41    1
     3    43    37    1
     4    40    39    2
     5    24    23    2
     6     1     2    1
     7    41    38    1
     8    35    34    2
     9    37    38    1
    10    37    31   am
    11    39    38    1
    12    39    44   am
    13    30    29    1
    14    30    31    1
    15    30    33    1
    16    23    22    1
    17    31    32    2
    18     2     5    1
    19     2     3    1
    20     5     6    1
    21    45    44    1
    22    45    48    1
    23    45    46    1
    24    50    49    1
    25    50    51    1
    26    21    22    1
    27    34    33    1
    28    34    36   am
    29    49    48    1
    30    22    25    1
    31    52    46   am
    32    52    53    1
    33    25    26    1
    34    61    59   ar
    35    61    60   ar
    36    59    57   ar
    37     3     4    2
    38    46    47    2
    39     6     7    2
    40     6     8   am
    41    27    26   ar
    42    26    28   ar
    43    53    54    1
    44    53    56    1
    45    60    58   ar
    46    57    56    1
    47    57    58   ar
    48    54    55    2
    49    93    92    1
    50     9    10    1
    51    92    91    1
    52    11    10    1
    53    11    12    2
    54    10    13    1
    55    77    78    2
    56    77    76    1
    57    79    76    1
    58    79    80    1
    59    76    75    1
    60    62    63    1
    61    80    81    1
    62    81    82    1
    63    89    88    2
    64    82    83    2
    65    68    67   ar
    66    13    14    1
    67    15    14   ar
    68    15    17   ar
    69    91    90    1
    70    14    16   ar
    71    17    19   ar
    72    83    85    1
    73    83    84    1
    74    16    18   ar
    75    19    20    1
    76    19    18   ar
    77    88    87    1
    78    88    94   am
    79    90    87    1
    80    87    86    1
    81    67    69   ar
    82    67    66    1
    83    63    66    1
    84    63    64    1
    85    70    64   am
    86    70    71    1
    87    94    95    1
    88    95    98    1
    89    95    96    1
    90    64    65    2
    91    72    73    2
    92    72    71    1
    93    98    99    1
    94   145   144    1
    95   143   142    2
    96    96   100   am
    97    96    97    2
    98   139   138    2
    99    71    74    1
   100   100   101    1
   101   104   105    1
   102   104   101    1
   103   144   141    1
   104   141   142    1
   105   141   140    1
   106   137   138    1
   107   137   136    1
   108   101   102    1
   109   135   133   am
   110   112   111   ar
   111   112   114   ar
   112   102   103    2
   113   127   125    1
   114   133   134    2
   115   133   132    1
   116   110   111    1
   117   110   107    1
   118   111   113   ar
   119   114   115   ar
   120   132   129    1
   121   125   126    1
   122   125   124    1
   123   106   107    1
   124   107   108    1
   125   115   113   ar
   126   115   117   ar
   127   109   108    2
   128   113   116   ar
   129   108   120   am
   130   129   128    1
   131   129   130    1
   132   120   121    1
   133   121   124    1
   134   121   122    1
   135   117   119   ar
   136   116   118   ar
   137   130   131    2
   138   119   118   ar
   139   122   123    2
