@<TRIPOS>MOLECULE
tmp/1jdzC00.pdb
 127 120 0 0 0
SMALL
GASTEIGER

@<TRIPOS>ATOM
      1  N         82.1290  121.9970   24.5820 N.3    19  GLY19      -0.1225
      2  CA        81.2240  120.8800   24.3660 C.3    19  GLY19       0.1811
      3  C         81.8600  119.5180   24.1350 C.2    19  GLY19       0.2280
      4  O         81.3100  118.4930   24.5410 O.2    19  GLY19      -0.2866
      5  N         80.5560  120.1270   28.3660 N.3    60  HIS60      -0.1226
      6  CA        79.1080  120.2650   28.5490 C.3    60  HIS60       0.1752
      7  C         78.2580  119.4950   27.5350 C.2    60  HIS60       0.2597
      8  O         77.0300  119.5030   27.6190 O.2    60  HIS60      -0.2718
      9  CB        78.6780  121.7470   28.5730 C.3    60  HIS60       0.0759
     10  CG        78.9390  122.4940   27.3000 C.ar   60  HIS60       0.0818
     11  ND1       78.3920  122.1240   26.0900 N.ar   60  HIS60      -0.2268
     12  CD2       79.6550  123.6190   27.0580 C.ar   60  HIS60       0.1154
     13  CE1       78.7580  122.9860   25.1590 C.ar   60  HIS60       0.1986
     14  NE2       79.5250  123.9050   25.7200 N.ar   60  HIS60      -0.2212
     15  N         78.9040  118.8170   26.5920 N.am   61  GLY61      -0.1942
     16  CA        78.1600  118.0530   25.6040 C.3    61  GLY61       0.2014
     17  C         77.3630  118.9150   24.6330 C.2    61  GLY61       0.2638
     18  O         77.5790  120.1230   24.5360 O.2    61  GLY61      -0.2714
     19  N         76.4260  118.3000   23.9220 N.am   62  ILE62      -0.1977
     20  CA        75.6260  119.0220   22.9430 C.3    62  ILE62       0.1596
     21  C         74.1860  119.2780   23.3920 C.2    62  ILE62       0.2287
     22  O         73.5440  118.4030   23.9670 O.2    62  ILE62      -0.2864
     23  CB        75.5760  118.2450   21.5960 C.3    62  ILE62       0.0276
     24  CG1       76.9950  118.0240   21.0530 C.3    62  ILE62       0.0022
     25  CG2       74.7560  119.0160   20.5780 C.3    62  ILE62       0.0022
     26  CD1       77.0350  117.2430   19.7540 C.3    62  ILE62       0.0001
     27  N         81.8900  129.9430   27.8910 N.3    84  ARG84      -0.1245
     28  CA        81.7820  128.8620   26.9270 C.3    84  ARG84       0.1563
     29  C         82.6800  129.1780   25.7450 C.2    84  ARG84       0.2260
     30  O         82.7820  130.3290   25.3200 O.2    84  ARG84      -0.2867
     31  CB        80.3370  128.7000   26.4600 C.3    84  ARG84       0.0307
     32  CG        80.1790  127.7700   25.2850 C.3    84  ARG84       0.0489
     33  CD        78.7170  127.4860   25.0000 C.3    84  ARG84       0.2205
     34  NE        78.4460  127.4780   23.5650 N.pl3  84  ARG84      -0.0865
     35  CZ        78.9590  126.6020   22.7090 C.cat  84  ARG84       0.5346
     36  NH1       79.7700  125.6550   23.1380 N.pl3  84  ARG84       0.1354
     37  NH2       78.6680  126.6790   21.4170 N.pl3  84  ARG84       0.1354
     38  N         82.5430  125.9640   18.7220 N.3    87  THR87      -0.1203
     39  CA        82.5180  126.2830   17.2990 C.3    87  THR87       0.1994
     40  C         81.1270  126.7240   16.8550 C.2    87  THR87       0.2619
     41  O         80.1330  126.4280   17.5140 O.2    87  THR87      -0.2717
     42  CB        82.9680  125.0800   16.4410 C.3    87  THR87       0.1784
     43  OG1       82.0420  124.0040   16.6020 O.3    87  THR87      -0.2211
     44  CG2       84.3380  124.6110   16.8730 C.3    87  THR87       0.0376
     45  N         81.0690  127.4300   15.7300 N.am   88  THR88      -0.1938
     46  CA        79.8070  127.9390   15.2100 C.3    88  THR88       0.2028
     47  C         79.8190  127.9930   13.6770 C.2    88  THR88       0.2642
     48  O         80.8600  127.8250   13.0350 O.2    88  THR88      -0.2714
     49  CB        79.5450  129.3770   15.7530 C.3    88  THR88       0.1808
     50  OG1       78.2190  129.8010   15.4250 O.3    88  THR88      -0.2208
     51  CG2       80.5400  130.3660   15.1420 C.3    88  THR88       0.0379
     52  N         78.6440  128.2100   13.1010 N.am   89  GLY89      -0.1954
     53  CA        78.5350  128.3310   11.6630 C.3    89  GLY89       0.1869
     54  C         78.0810  129.7490   11.3670 C.2    89  GLY89       0.2309
     55  O         77.0100  130.1590   11.8180 O.2    89  GLY89      -0.2863
     56  N         70.1680  126.9430   18.0540 N.3   155  SER155     -0.1217
     57  CA        69.2970  125.9150   17.4820 C.3   155  SER155      0.1889
     58  C         69.2470  124.6590   18.3380 C.2   155  SER155      0.2288
     59  O         70.2000  124.3470   19.0550 O.2   155  SER155     -0.2866
     60  CB        69.7920  125.5260   16.0820 C.3   155  SER155      0.2089
     61  OG        69.0030  124.4840   15.5260 O.3   155  SER155     -0.2183
     62  N         70.1020  120.3120   14.7670 N.3   158  PHE158     -0.1241
     63  CA        71.1820  120.4020   13.7810 C.3   158  PHE158      0.1605
     64  C         70.7060  119.9830   12.3760 C.2   158  PHE158      0.2264
     65  O         71.0710  120.6080   11.3800 O.2   158  PHE158     -0.2867
     66  CB        72.3350  119.4930   14.2220 C.3   158  PHE158      0.0534
     67  CG        73.6230  119.7110   13.4700 C.ar  158  PHE158     -0.0203
     68  CD1       74.5640  120.6350   13.9250 C.ar  158  PHE158     -0.0042
     69  CD2       73.9110  118.9660   12.3280 C.ar  158  PHE158     -0.0042
     70  CE1       75.7800  120.8100   13.2520 C.ar  158  PHE158     -0.0003
     71  CE2       75.1170  119.1300   11.6480 C.ar  158  PHE158     -0.0003
     72  CZ        76.0550  120.0510   12.1090 C.ar  158  PHE158     -0.0000
     73  N         75.2640  130.5630   14.0430 N.3   177  VAL177     -0.1231
     74  CA        74.4050  129.5890   14.7060 C.3   177  VAL177      0.1692
     75  C         75.2010  128.5750   15.5190 C.2   177  VAL177      0.2592
     76  O         76.2570  128.1040   15.0940 O.2   177  VAL177     -0.2718
     77  CB        73.5230  128.8180   13.6740 C.3   177  VAL177      0.0266
     78  CG1       74.3980  128.0400   12.6950 C.3   177  VAL177      0.0020
     79  CG2       72.5800  127.8630   14.3980 C.3   177  VAL177      0.0020
     80  N         74.6930  128.2590   16.7050 N.am  178  GLU178     -0.1966
     81  CA        75.3030  127.2610   17.5700 C.3   178  GLU178      0.1733
     82  C         74.1550  126.6300   18.3720 C.2   178  GLU178      0.2616
     83  O         72.9940  126.7910   17.9920 O.2   178  GLU178     -0.2715
     84  CB        76.4030  127.8890   18.4510 C.3   178  GLU178      0.0429
     85  CG        75.9890  129.0810   19.2690 C.3   178  GLU178      0.1163
     86  CD        75.3850  128.6690   20.5770 C.2   178  GLU178      0.3649
     87  OE1       76.0830  127.9930   21.3600 O.co2 178  GLU178     -0.2457
     88  OE2       74.2140  129.0150   20.8160 O.co2 178  GLU178     -0.2457
     89  N         74.4290  125.9340   19.4670 N.am  179  MET179     -0.1963
     90  CA        73.3180  125.2880   20.1510 C.3   179  MET179      0.1736
     91  C         73.0890  125.4970   21.6450 C.2   179  MET179      0.2616
     92  O         72.0790  125.0300   22.1740 O.2   179  MET179     -0.2715
     93  CB        73.3620  123.7810   19.8480 C.3   179  MET179      0.0427
     94  CG        73.3070  123.4590   18.3510 C.3   179  MET179      0.0599
     95  SD        73.2860  121.6850   17.9230 S.3   179  MET179     -0.1393
     96  CE        71.7290  121.1930   18.7150 C.3   179  MET179      0.0692
     97  N         73.9810  126.1870   22.3440 N.am  180  GLU180     -0.1977
     98  CA        73.7300  126.3460   23.7690 C.3   180  GLU180      0.1602
     99  C         73.8440  127.7190   24.4420 C.2   180  GLU180      0.2287
    100  O         73.6160  127.8230   25.6490 O.2   180  GLU180     -0.2864
    101  CB        74.5410  125.3140   24.5680 C.3   180  GLU180      0.0415
    102  CG        75.9770  125.1110   24.1680 C.3   180  GLU180      0.1163
    103  CD        76.1530  124.2320   22.9270 C.2   180  GLU180      0.3649
    104  OE1       75.5630  123.1320   22.8280 O.co2 180  GLU180     -0.2457
    105  OE2       76.9100  124.6520   22.0470 O.co2 180  GLU180     -0.2457
    106  N         83.7800  127.4040   12.2890 N.3   202  SER202     -0.1202
    107  CA        84.2560  126.2050   11.6030 C.3   202  SER202      0.2020
    108  C         83.6200  126.0070   10.2260 C.2   202  SER202      0.2618
    109  O         84.0270  125.1270    9.4690 O.2   202  SER202     -0.2717
    110  CB        84.0400  124.9720   12.4770 C.3   202  SER202      0.2103
    111  OG        82.6840  124.8470   12.8330 O.3   202  SER202     -0.2182
    112  N         82.6210  126.8230    9.9080 N.am  203  ASP203     -0.1973
    113  CA        81.9780  126.7710    8.5930 C.3   203  ASP203      0.1709
    114  C         81.1680  128.0340    8.3970 C.2   203  ASP203      0.2293
    115  O         80.9250  128.7710    9.3530 O.2   203  ASP203     -0.2864
    116  CB        81.1110  125.5120    8.4370 C.3   203  ASP203      0.1436
    117  CG        79.8940  125.5180    9.3210 C.2   203  ASP203      0.3671
    118  OD1       80.0310  125.8290   10.5230 O.co2 203  ASP203     -0.2456
    119  OD2       78.7940  125.1920    8.8140 O.co2 203  ASP203     -0.2456
    120  N         77.6350  129.2400    6.4900 N.3   205  LEU205     -0.1245
    121  CA        76.4370  128.8650    5.7460 C.3   205  LEU205      0.1561
    122  C         76.0260  129.8390    4.6500 C.2   205  LEU205      0.2260
    123  O         75.1690  129.5150    3.8240 O.2   205  LEU205     -0.2867
    124  CB        75.2600  128.6590    6.7160 C.3   205  LEU205      0.0270
    125  CG        75.3890  127.5560    7.7760 C.3   205  LEU205      0.0019
    126  CD1       74.0630  127.3970    8.5210 C.3   205  LEU205      0.0001
    127  CD2       75.7410  126.2380    7.1050 C.3   205  LEU205      0.0001
@<TRIPOS>BOND
     1   123   122    2
     2   122   121    1
     3   121   120    1
     4   121   124    1
     5   124   125    1
     6   127   125    1
     7   125   126    1
     8   114   113    1
     9   114   115    2
    10   116   113    1
    11   116   117    1
    12   113   112    1
    13   119   117   ar
    14   117   118   ar
    15   109   108    2
    16   112   108   am
    17   108   107    1
    18    54    53    1
    19    54    55    2
    20    65    64    2
    21   107   106    1
    22   107   110    1
    23    71    72   ar
    24    71    69   ar
    25    53    52    1
    26    72    70   ar
    27    69    67   ar
    28    64    63    1
    29   110   111    1
    30    78    77    1
    31    48    47    2
    32    52    47   am
    33    70    68   ar
    34    67    68   ar
    35    67    66    1
    36    77    79    1
    37    77    74    1
    38    47    46    1
    39    63    66    1
    40    63    62    1
    41    73    74    1
    42    74    75    1
    43    76    75    2
    44    51    49    1
    45    46    45    1
    46    46    49    1
    47    50    49    1
    48    75    80   am
    49    61    60    1
    50    45    40   am
    51    60    57    1
    52    42    43    1
    53    42    44    1
    54    42    39    1
    55    80    81    1
    56    40    39    1
    57    40    41    2
    58    39    38    1
    59    57    56    1
    60    57    58    1
    61    81    82    1
    62    81    84    1
    63    95    94    1
    64    95    96    1
    65    83    82    2
    66    58    59    2
    67    94    93    1
    68    82    89   am
    69    84    85    1
    70    85    86    1
    71    89    90    1
    72    26    24    1
    73    93    90    1
    74    90    91    1
    75    86    88   ar
    76    86    87   ar
    77    25    23    1
    78    24    23    1
    79    37    35    1
    80    23    20    1
    81    91    92    2
    82    91    97   am
    83   105   103   ar
    84    97    98    1
    85    35    36    1
    86    35    34    2
    87   104   103   ar
    88   103   102    1
    89    20    21    1
    90    20    19    1
    91    21    22    2
    92    34    33    1
    93    98    99    1
    94    98   101    1
    95    19    17   am
    96     3     2    1
    97     3     4    2
    98   102   101    1
    99     2     1    1
   100    99   100    2
   101    18    17    2
   102    17    16    1
   103    33    32    1
   104    13    14   ar
   105    13    11   ar
   106    32    31    1
   107    30    29    2
   108    16    15    1
   109    14    12   ar
   110    29    28    1
   111    11    10   ar
   112    31    28    1
   113    15     7   am
   114    28    27    1
   115    12    10   ar
   116    10     9    1
   117     7     8    2
   118     7     6    1
   119     5     6    1
   120     6     9    1
