@<TRIPOS>MOLECULE
tmp/1je1C00.pdb
 136 128 0 0 0
SMALL
GASTEIGER

@<TRIPOS>ATOM
      1  N         94.8430   23.4440  186.3850 N.3    20  GLY20      -0.1225
      2  CA        93.4340   23.1820  186.1620 C.3    20  GLY20       0.1811
      3  C         92.5970   22.9590  187.4030 C.2    20  GLY20       0.2280
      4  O         91.4450   23.3850  187.4750 O.2    20  GLY20      -0.2866
      5  N         92.4410   27.2340  186.0990 N.3    61  HIS61      -0.1226
      6  CA        91.8380   27.4100  184.7830 C.3    61  HIS61       0.1752
      7  C         90.7290   26.4250  184.4160 C.2    61  HIS61       0.2597
      8  O         90.1330   26.5350  183.3460 O.2    61  HIS61      -0.2718
      9  CB        92.9080   27.4580  183.6680 C.3    61  HIS61       0.0759
     10  CG        93.6730   26.1840  183.4580 C.ar   61  HIS61       0.0818
     11  ND1       93.0700   24.9940  183.1100 N.ar   61  HIS61      -0.2268
     12  CD2       95.0060   25.9450  183.4390 C.ar   61  HIS61       0.1154
     13  CE1       93.9960   24.0820  182.8780 C.ar   61  HIS61       0.1986
     14  NE2       95.1800   24.6320  183.0690 N.ar   61  HIS61      -0.2212
     15  N         90.4210   25.4920  185.3110 N.am   62  GLY62      -0.1942
     16  CA        89.3650   24.5360  185.0210 C.3    62  GLY62       0.2014
     17  C         89.7390   23.5970  183.8870 C.2    62  GLY62       0.2638
     18  O         90.8700   23.6250  183.4080 O.2    62  GLY62      -0.2714
     19  N         88.7790   22.7900  183.4390 N.am   63  ILE63      -0.1977
     20  CA        89.0180   21.8050  182.3830 C.3    63  ILE63       0.1596
     21  C         88.5440   22.1980  180.9840 C.2    63  ILE63       0.2287
     22  O         87.4080   22.6480  180.8040 O.2    63  ILE63      -0.2864
     23  CB        88.3370   20.4560  182.7440 C.3    63  ILE63       0.0276
     24  CG1       88.8790   19.9390  184.0810 C.3    63  ILE63       0.0022
     25  CG2       88.5700   19.4240  181.6330 C.3    63  ILE63       0.0022
     26  CD1       88.2130   18.6680  184.5480 C.3    63  ILE63       0.0001
     27  N        101.7170   26.7570  182.2660 N.3    85  ARG85      -0.1245
     28  CA       100.7210   25.7860  182.6980 C.3    85  ARG85       0.1563
     29  C        101.4290   24.6160  183.3670 C.2    85  ARG85       0.2260
     30  O        102.4290   24.1100  182.8680 O.2    85  ARG85      -0.2867
     31  CB        99.8880   25.2870  181.5050 C.3    85  ARG85       0.0307
     32  CG        98.9440   24.1170  181.8320 C.3    85  ARG85       0.0489
     33  CD        97.9880   23.7800  180.6790 C.3    85  ARG85       0.2205
     34  NE        97.7740   22.3350  180.5580 N.pl3  85  ARG85      -0.0865
     35  CZ        97.2530   21.5600  181.5050 C.cat  85  ARG85       0.5346
     36  NH1       97.1140   20.2600  181.2900 N.pl3  85  ARG85       0.1354
     37  NH2       96.8600   22.0760  182.6640 N.pl3  85  ARG85       0.1354
     38  N         98.4830   17.8800  184.7610 N.3    88  THR88      -0.1203
     39  CA        98.6870   16.4390  184.7750 C.3    88  THR88       0.1994
     40  C         98.4170   15.9160  183.3680 C.2    88  THR88       0.2619
     41  O         97.7970   16.6040  182.5530 O.2    88  THR88      -0.2717
     42  CB        97.7300   15.7560  185.7520 C.3    88  THR88       0.1784
     43  OG1       96.3820   16.0840  185.4000 O.3    88  THR88      -0.2211
     44  CG2       98.0060   16.2230  187.1730 C.3    88  THR88       0.0376
     45  N         98.8640   14.6980  183.0860 N.am   89  THR89      -0.1938
     46  CA        98.6860   14.1390  181.7550 C.3    89  THR89       0.2028
     47  C         98.7620   12.6160  181.7470 C.2    89  THR89       0.2642
     48  O         99.2470   12.0040  182.6920 O.2    89  THR89      -0.2714
     49  CB        99.7750   14.6940  180.7990 C.3    89  THR89       0.1808
     50  OG1       99.5330   14.2410  179.4620 O.3    89  THR89      -0.2208
     51  CG2      101.1520   14.2270  181.2370 C.3    89  THR89       0.0379
     52  N         98.2560   12.0160  180.6750 N.am   90  GLY90      -0.1954
     53  CA        98.3150   10.5750  180.5270 C.3    90  GLY90       0.1869
     54  C         99.3110   10.2950  179.4160 C.2    90  GLY90       0.2309
     55  O         99.1510   10.7920  178.3040 O.2    90  GLY90      -0.2863
     56  N         93.2040   16.9010  173.7360 N.3   156  SER156     -0.1217
     57  CA        91.8890   16.3280  173.4770 C.3   156  SER156      0.1889
     58  C         90.7480   17.1650  174.0480 C.2   156  SER156      0.2288
     59  O         90.9250   17.8810  175.0400 O.2   156  SER156     -0.2866
     60  CB        91.8340   14.9220  174.0860 C.3   156  SER156      0.2089
     61  OG        90.5280   14.3870  174.0290 O.3   156  SER156     -0.2183
     62  N         87.5480   13.6010  176.9220 N.3   159  PHE159     -0.1241
     63  CA        88.2030   12.6810  177.8380 C.3   159  PHE159      0.1605
     64  C         87.6960   11.2430  177.6940 C.2   159  PHE159      0.2264
     65  O         88.4840   10.2970  177.6780 O.2   159  PHE159     -0.2867
     66  CB        87.9760   13.1670  179.2750 C.3   159  PHE159      0.0534
     67  CG        88.7410   12.3940  180.3150 C.ar  159  PHE159     -0.0203
     68  CD1       90.0110   12.8040  180.7170 C.ar  159  PHE159     -0.0042
     69  CD2       88.1850   11.2670  180.9070 C.ar  159  PHE159     -0.0042
     70  CE1       90.7140   12.0980  181.7010 C.ar  159  PHE159     -0.0003
     71  CE2       88.8740   10.5580  181.8840 C.ar  159  PHE159     -0.0003
     72  CZ        90.1400   10.9740  182.2840 C.ar  159  PHE159     -0.0000
     73  N         88.6560    8.5060  174.4420 N.3   162  GLU162     -0.1245
     74  CA        90.0620    8.1270  174.2870 C.3   162  GLU162      0.1567
     75  C         90.3090    6.6280  174.4830 C.2   162  GLU162      0.2260
     76  O         90.7560    6.1890  175.5470 O.2   162  GLU162     -0.2867
     77  CB        90.9170    8.9380  175.2700 C.3   162  GLU162      0.0388
     78  CG        91.0360   10.4090  174.8800 C.3   162  GLU162      0.1160
     79  CD        91.6190   11.2820  175.9740 C.2   162  GLU162      0.3649
     80  OE1       92.4340   10.7790  176.7820 O.co2 162  GLU162     -0.2457
     81  OE2       91.2720   12.4840  176.0150 O.co2 162  GLU162     -0.2457
     82  N         98.7320   12.9260  176.3780 N.3   178  VAL178     -0.1231
     83  CA        97.4730   13.5940  176.0740 C.3   178  VAL178      0.1692
     84  C         96.9540   14.3880  177.2700 C.2   178  VAL178      0.2592
     85  O         97.0280   13.9360  178.4110 O.2   178  VAL178     -0.2718
     86  CB        96.3730   12.5790  175.6470 C.3   178  VAL178      0.0266
     87  CG1       96.1980   11.5070  176.7180 C.3   178  VAL178      0.0020
     88  CG2       95.0400   13.3080  175.4190 C.3   178  VAL178      0.0020
     89  N         96.4450   15.5850  176.9960 N.am  179  GLU179     -0.1966
     90  CA        95.8560   16.4340  178.0190 C.3   179  GLU179      0.1733
     91  C         94.7890   17.2700  177.3030 C.2   179  GLU179      0.2616
     92  O         94.3940   16.9050  176.1960 O.2   179  GLU179     -0.2715
     93  CB        96.9310   17.2770  178.7290 C.3   179  GLU179      0.0429
     94  CG        97.8420   18.0830  177.8390 C.3   179  GLU179      0.1163
     95  CD        97.2370   19.4140  177.4650 C.2   179  GLU179      0.3649
     96  OE1       96.9300   20.2010  178.3850 O.co2 179  GLU179     -0.2457
     97  OE2       97.0690   19.6660  176.2540 O.co2 179  GLU179     -0.2457
     98  N         94.3250   18.3730  177.8820 N.am  180  MET180     -0.1963
     99  CA        93.2460   19.1030  177.2180 C.3   180  MET180      0.1736
    100  C         93.3520   20.6090  177.0140 C.2   180  MET180      0.2616
    101  O         92.4580   21.2000  176.4040 O.2   180  MET180     -0.2715
    102  CB        91.9290   18.8190  177.9580 C.3   180  MET180      0.0427
    103  CG        91.6060   17.3300  178.1120 C.3   180  MET180      0.0599
    104  SD        90.1420   16.9850  179.1110 S.3   180  MET180     -0.1393
    105  CE        88.8120   17.6050  178.0510 C.3   180  MET180      0.0692
    106  N         94.4240   21.2350  177.4860 N.am  181  GLU181     -0.1977
    107  CA        94.5110   22.6870  177.3660 C.3   181  GLU181      0.1602
    108  C         95.6900   23.3320  176.6320 C.2   181  GLU181      0.2287
    109  O         95.6280   24.5200  176.3260 O.2   181  GLU181     -0.2864
    110  CB        94.4390   23.3110  178.7690 C.3   181  GLU181      0.0415
    111  CG        93.1460   23.0410  179.5590 C.3   181  GLU181      0.1163
    112  CD        93.1690   21.7240  180.3210 C.2   181  GLU181      0.3649
    113  OE1       94.2650   21.1820  180.5490 O.co2 181  GLU181     -0.2457
    114  OE2       92.0910   21.2320  180.7110 O.co2 181  GLU181     -0.2457
    115  N        100.2720   11.3720  185.4070 N.3   203  SER203     -0.1202
    116  CA        99.4300   10.7510  186.4290 C.3   203  SER203      0.2020
    117  C         98.7880    9.4370  185.9950 C.2   203  SER203      0.2618
    118  O         98.0570    8.8150  186.7620 O.2   203  SER203     -0.2717
    119  CB        98.3280   11.7220  186.8520 C.3   203  SER203      0.2103
    120  OG        97.5800   12.1590  185.7280 O.3   203  SER203     -0.2182
    121  N         99.0540    9.0240  184.7630 N.am  204  ASP204     -0.1973
    122  CA        98.4880    7.7890  184.2340 C.3   204  ASP204      0.1709
    123  C         99.2220    7.4890  182.9330 C.2   204  ASP204      0.2293
    124  O         99.8190    8.3850  182.3380 O.2   204  ASP204     -0.2864
    125  CB        96.9870    7.9820  183.9620 C.3   204  ASP204      0.1436
    126  CG        96.2460    6.6690  183.7380 C.2   204  ASP204      0.3671
    127  OD1       96.9050    5.6200  183.5840 O.co2 204  ASP204     -0.2456
    128  OD2       94.9920    6.6930  183.7110 O.co2 204  ASP204     -0.2456
    129  N         98.3200    5.5920  179.3790 N.3   206  LEU206     -0.1245
    130  CA        97.3490    4.9160  178.5230 C.3   206  LEU206      0.1561
    131  C         97.9290    3.7590  177.7150 C.2   206  LEU206      0.2260
    132  O         97.1850    2.9580  177.1450 O.2   206  LEU206     -0.2867
    133  CB        96.6990    5.9220  177.5670 C.3   206  LEU206      0.0270
    134  CG        95.6290    6.8560  178.1410 C.3   206  LEU206      0.0019
    135  CD1       96.2470    7.8040  179.1580 C.3   206  LEU206      0.0001
    136  CD2       94.9860    7.6360  177.0040 C.3   206  LEU206      0.0001
@<TRIPOS>BOND
     1    57    56    1
     2    57    58    1
     3    57    60    1
     4    61    60    1
     5    58    59    2
     6    74    73    1
     7    74    75    1
     8    74    77    1
     9    75    76    2
    10    78    77    1
    11    78    79    1
    12    88    86    1
    13    86    83    1
    14    86    87    1
    15    79    81   ar
    16    79    80   ar
    17    83    82    1
    18    83    84    1
    19    92    91    2
    20    97    95   ar
    21   109   108    2
    22   101   100    2
    23   108   107    1
    24    62    63    1
    25    89    84   am
    26    89    90    1
    27   136   134    1
    28   100    99    1
    29   100   106   am
    30   132   131    2
    31    99    98    1
    32    99   102    1
    33    84    85    2
    34    91    98   am
    35    91    90    1
    36   107   106    1
    37   107   110    1
    38    95    94    1
    39    95    96   ar
    40   133   134    1
    41   133   130    1
    42    65    64    2
    43    64    63    1
    44   131   130    1
    45    63    66    1
    46    94    93    1
    47   102   103    1
    48    90    93    1
    49   105   104    1
    50   103   104    1
    51   134   135    1
    52    55    54    2
    53   130   129    1
    54   110   111    1
    55    66    67    1
    56    54    53    1
    57    50    49    1
    58   111   112    1
    59    67    68   ar
    60    67    69   ar
    61   112   113   ar
    62   112   114   ar
    63    53    52    1
    64    34    33    1
    65    34    35    2
    66    52    47   am
    67    33    32    1
    68    68    70   ar
    69    49    51    1
    70    49    46    1
    71    22    21    2
    72    69    71   ar
    73    21    20    1
    74    36    35    1
    75    31    32    1
    76    31    28    1
    77    35    37    1
    78    25    23    1
    79    70    72   ar
    80    47    46    1
    81    47    48    2
    82    46    45    1
    83    71    72   ar
    84    27    28    1
    85   124   123    2
    86    20    23    1
    87    20    19    1
    88    41    40    2
    89    28    29    1
    90    23    24    1
    91    30    29    2
    92    13    14   ar
    93    13    11   ar
    94   123   122    1
    95    14    12   ar
    96    45    40   am
    97    11    10   ar
    98     8     7    2
    99    40    39    1
   100    18    17    2
   101    19    17   am
   102    12    10   ar
   103    10     9    1
   104   127   126   ar
   105     9     6    1
   106   128   126   ar
   107   126   125    1
   108    17    16    1
   109   125   122    1
   110    24    26    1
   111   122   121    1
   112     7     6    1
   113     7    15   am
   114    38    39    1
   115   121   117   am
   116    39    42    1
   117     6     5    1
   118    16    15    1
   119    43    42    1
   120   115   116    1
   121   120   119    1
   122    42    44    1
   123   117   116    1
   124   117   118    2
   125     2     1    1
   126     2     3    1
   127   116   119    1
   128     3     4    2
