@<TRIPOS>MOLECULE
tmp/1jebC00.pdb
 216 205 0 0 0
SMALL
GASTEIGER

@<TRIPOS>ATOM
      1  N        -18.6750   19.9600    2.3180 N.3    32  LEU32      -0.1245
      2  CA       -18.4430   21.2470    1.6790 C.3    32  LEU32       0.1561
      3  C        -19.5900   22.2320    1.8450 C.2    32  LEU32       0.2260
      4  O        -19.3710   23.3990    2.1820 O.2    32  LEU32      -0.2867
      5  CB       -18.1840   21.0600    0.1850 C.3    32  LEU32       0.0270
      6  CG       -17.9290   22.3440   -0.6140 C.3    32  LEU32       0.0019
      7  CD1      -16.5750   22.9190   -0.2430 C.3    32  LEU32       0.0001
      8  CD2      -17.9860   22.0450   -2.0940 C.3    32  LEU32       0.0001
      9  N        -20.7130   27.9460   -1.0870 N.3    39  THR39      -0.1218
     10  CA       -20.6360   27.0740   -2.2530 C.3    39  THR39       0.1862
     11  C        -21.9980   26.5880   -2.7430 C.2    39  THR39       0.2287
     12  O        -22.1400   26.1940   -3.8970 O.2    39  THR39      -0.2866
     13  CB       -19.7430   25.8460   -1.9720 C.3    39  THR39       0.1770
     14  OG1      -20.2800   25.1090   -0.8750 O.3    39  THR39      -0.2211
     15  CG2      -18.3200   26.2840   -1.6340 C.3    39  THR39       0.0375
     16  N        -23.9690   27.7800   -6.1370 N.3    42  TYR42      -0.1227
     17  CA       -23.7140   27.2400   -7.4660 C.3    42  TYR42       0.1736
     18  C        -24.6880   26.1210   -7.8290 C.2    42  TYR42       0.2595
     19  O        -24.7340   25.6790   -8.9760 O.2    42  TYR42      -0.2718
     20  CB       -22.2730   26.7250   -7.5430 C.3    42  TYR42       0.0548
     21  CG       -21.2420   27.8210   -7.3900 C.ar   42  TYR42      -0.0200
     22  CD1      -20.8770   28.6200   -8.4730 C.ar   42  TYR42      -0.0009
     23  CD2      -20.6620   28.0890   -6.1490 C.ar   42  TYR42      -0.0009
     24  CE1      -19.9610   29.6610   -8.3240 C.ar   42  TYR42       0.0417
     25  CE2      -19.7490   29.1260   -5.9890 C.ar   42  TYR42       0.0417
     26  CZ       -19.4030   29.9090   -7.0790 C.ar   42  TYR42       0.1957
     27  OH       -18.5100   30.9470   -6.9120 O.3    42  TYR42      -0.2866
     28  N        -25.4650   25.6640   -6.8510 N.am   43  PHE43      -0.1976
     29  CA       -26.4260   24.5880   -7.0900 C.3    43  PHE43       0.1639
     30  C        -27.8470   24.9880   -6.6720 C.2    43  PHE43       0.2290
     31  O        -28.5160   24.2650   -5.9310 O.2    43  PHE43      -0.2864
     32  CB       -26.0130   23.3270   -6.3180 C.3    43  PHE43       0.0560
     33  CG       -24.6410   22.8140   -6.6600 C.ar   43  PHE43      -0.0200
     34  CD1      -23.5000   23.4710   -6.2050 C.ar   43  PHE43      -0.0042
     35  CD2      -24.4890   21.6490   -7.4020 C.ar   43  PHE43      -0.0042
     36  CE1      -22.2260   22.9690   -6.4800 C.ar   43  PHE43      -0.0003
     37  CE2      -23.2190   21.1390   -7.6820 C.ar   43  PHE43      -0.0003
     38  CZ       -22.0870   21.8010   -7.2180 C.ar   43  PHE43      -0.0000
     39  N        -30.4340   24.9050   -8.3630 N.3    45  HIS45      -0.1226
     40  CA       -31.3290   23.9320   -8.9870 C.3    45  HIS45       0.1752
     41  C        -31.2560   22.5610   -8.3150 C.2    45  HIS45       0.2596
     42  O        -31.8750   21.5980   -8.7770 O.2    45  HIS45      -0.2718
     43  CB       -30.9430   23.7740  -10.4560 C.3    45  HIS45       0.0759
     44  CG       -29.5160   23.3600  -10.6550 C.ar   45  HIS45       0.0818
     45  ND1      -28.4550   24.0770  -10.1440 N.ar   45  HIS45      -0.2268
     46  CD2      -28.9740   22.3000  -11.3020 C.ar   45  HIS45       0.1154
     47  CE1      -27.3220   23.4780  -10.4670 C.ar   45  HIS45       0.1986
     48  NE2      -27.6090   22.3970  -11.1700 N.ar   45  HIS45      -0.2212
     49  N        -30.4940   22.4730   -7.2330 N.am   46  PHE46      -0.1976
     50  CA       -30.3210   21.2090   -6.5340 C.3    46  PHE46       0.1639
     51  C        -31.1390   21.0490   -5.2670 C.2    46  PHE46       0.2290
     52  O        -31.4200   22.0090   -4.5490 O.2    46  PHE46      -0.2864
     53  CB       -28.8450   21.0040   -6.1640 C.3    46  PHE46       0.0560
     54  CG       -28.0440   20.2460   -7.1900 C.ar   46  PHE46      -0.0200
     55  CD1      -28.1430   20.5460   -8.5420 C.ar   46  PHE46      -0.0042
     56  CD2      -27.1500   19.2560   -6.7890 C.ar   46  PHE46      -0.0042
     57  CE1      -27.3610   19.8750   -9.4810 C.ar   46  PHE46      -0.0003
     58  CE2      -26.3640   18.5790   -7.7180 C.ar   46  PHE46      -0.0003
     59  CZ       -26.4690   18.8890   -9.0670 C.ar   46  PHE46      -0.0000
     60  N        -24.4930   13.5780   -8.4000 N.3    58  HIS58      -0.1241
     61  CA       -23.4640   14.5650   -8.6880 C.3    58  HIS58       0.1621
     62  C        -22.1480   14.1780   -8.0140 C.2    58  HIS58       0.2264
     63  O        -21.0750   14.3690   -8.5830 O.2    58  HIS58      -0.2867
     64  CB       -23.8960   15.9460   -8.2100 C.3    58  HIS58       0.0745
     65  CG       -22.8740   17.0030   -8.4730 C.ar   58  HIS58       0.0817
     66  ND1      -22.3820   17.2580   -9.7330 N.ar   58  HIS58      -0.2268
     67  CD2      -22.2180   17.8400   -7.6340 C.ar   58  HIS58       0.1154
     68  CE1      -21.4640   18.2060   -9.6600 C.ar   58  HIS58       0.1986
     69  NE2      -21.3470   18.5760   -8.3980 N.ar   58  HIS58      -0.2212
     70  N        -20.2860   11.6740   -9.9880 N.3    61  LYS61      -0.1231
     71  CA       -19.6580   12.2400  -11.1680 C.3    61  LYS61       0.1693
     72  C        -18.3410   12.9430  -10.8170 C.2    61  LYS61       0.2591
     73  O        -17.3590   12.8340  -11.5510 O.2    61  LYS61      -0.2718
     74  CB       -20.6280   13.2030  -11.8760 C.3    61  LYS61       0.0285
     75  CG       -21.9060   12.5110  -12.3830 C.3    61  LYS61       0.0035
     76  CD       -22.5850   13.2820  -13.5210 C.3    61  LYS61       0.0206
     77  CE       -23.1340   14.6290  -13.0640 C.3    61  LYS61       0.1093
     78  NZ       -23.7490   15.4060  -14.1910 N.3    61  LYS61      -0.1314
     79  N        -18.3160   13.6480   -9.6930 N.am   62  VAL62      -0.1980
     80  CA       -17.0990   14.3310   -9.2690 C.3    62  VAL62       0.1595
     81  C        -15.9950   13.3050   -9.0220 C.2    62  VAL62       0.2287
     82  O        -14.8990   13.4230   -9.5630 O.2    62  VAL62      -0.2864
     83  CB       -17.3370   15.1530   -7.9870 C.3    62  VAL62       0.0276
     84  CG1      -16.0110   15.7400   -7.4760 C.3    62  VAL62       0.0022
     85  CG2      -18.3390   16.2640   -8.2730 C.3    62  VAL62       0.0022
     86  N        -14.7600   11.7040  -12.1130 N.3    65  ALA65      -0.1231
     87  CA       -13.8210   12.5870  -12.8040 C.3    65  ALA65       0.1694
     88  C        -12.4320   12.5160  -12.1530 C.2    65  ALA65       0.2591
     89  O        -11.4120   12.5220  -12.8420 O.2    65  ALA65      -0.2718
     90  CB       -14.3420   14.0270  -12.7830 C.3    65  ALA65       0.0304
     91  N        -12.3900   12.4590  -10.8230 N.am   66  VAL66      -0.1980
     92  CA       -11.1040   12.3590  -10.1300 C.3    66  VAL66       0.1595
     93  C        -10.4450   11.0460  -10.5580 C.2    66  VAL66       0.2287
     94  O         -9.2420   10.9950  -10.8340 O.2    66  VAL66      -0.2864
     95  CB       -11.2750   12.3780   -8.5900 C.3    66  VAL66       0.0276
     96  CG1       -9.9480   12.0420   -7.9150 C.3    66  VAL66       0.0022
     97  CG2      -11.7440   13.7570   -8.1330 C.3    66  VAL66       0.0022
     98  N         -9.3250   15.7640  -18.2120 N.3    80  LEU80      -0.1245
     99  CA       -10.3200   16.6740  -17.6480 C.3    80  LEU80       0.1561
    100  C        -10.4660   17.9540  -18.4650 C.2    80  LEU80       0.2260
    101  O        -11.1700   18.8810  -18.0610 O.2    80  LEU80      -0.2867
    102  CB        -9.9220   17.0430  -16.2190 C.3    80  LEU80       0.0270
    103  CG        -9.5480   15.9000  -15.2780 C.3    80  LEU80       0.0019
    104  CD1       -8.9710   16.4820  -14.0040 C.3    80  LEU80       0.0001
    105  CD2      -10.7620   15.0380  -14.9850 C.3    80  LEU80       0.0001
    106  N        -14.0440   19.4880  -18.7120 N.3    83  LEU83      -0.1245
    107  CA       -14.6400   20.1830  -17.5710 C.3    83  LEU83       0.1561
    108  C        -14.2540   21.6500  -17.3470 C.2    83  LEU83       0.2260
    109  O        -14.9480   22.3730  -16.6330 O.2    83  LEU83      -0.2867
    110  CB       -14.3420   19.3940  -16.2940 C.3    83  LEU83       0.0270
    111  CG       -14.7150   17.9100  -16.2930 C.3    83  LEU83       0.0019
    112  CD1      -14.3450   17.2920  -14.9560 C.3    83  LEU83       0.0001
    113  CD2      -16.1990   17.7530  -16.5600 C.3    83  LEU83       0.0001
    114  N        -16.8780   24.4650  -18.6550 N.3    86  LEU86      -0.1231
    115  CA       -18.0590   24.4200  -17.8050 C.3    86  LEU86       0.1693
    116  C        -17.8820   25.2260  -16.5130 C.2    86  LEU86       0.2592
    117  O        -18.6610   26.1320  -16.2190 O.2    86  LEU86      -0.2718
    118  CB       -18.3840   22.9670  -17.4480 C.3    86  LEU86       0.0284
    119  CG       -19.8370   22.5970  -17.1180 C.3    86  LEU86       0.0019
    120  CD1      -19.8650   21.2330  -16.4410 C.3    86  LEU86       0.0001
    121  CD2      -20.4630   23.6320  -16.2190 C.3    86  LEU86       0.0001
    122  N        -16.8500   24.8860  -15.7450 N.am   87  HIS87      -0.1976
    123  CA       -16.5810   25.5470  -14.4700 C.3    87  HIS87       0.1656
    124  C        -16.1060   26.9860  -14.5650 C.2    87  HIS87       0.2291
    125  O        -16.5270   27.8370  -13.7750 O.2    87  HIS87      -0.2864
    126  CB       -15.5540   24.7460  -13.6670 C.3    87  HIS87       0.0771
    127  CG       -16.0510   23.4120  -13.2170 C.ar   87  HIS87       0.0820
    128  ND1      -16.0590   22.3050  -14.0380 N.ar   87  HIS87      -0.2267
    129  CD2      -16.5870   23.0120  -12.0420 C.ar   87  HIS87       0.1154
    130  CE1      -16.5750   21.2800  -13.3870 C.ar   87  HIS87       0.1986
    131  NE2      -16.9040   21.6830  -12.1730 N.ar   87  HIS87      -0.2212
    132  N        -19.9970   28.2450  -15.4360 N.3    91  LEU91      -0.1245
    133  CA       -20.3420   28.3570  -14.0230 C.3    91  LEU91       0.1561
    134  C        -19.6490   29.5230  -13.3160 C.2    91  LEU91       0.2260
    135  O        -20.1460   30.0340  -12.3090 O.2    91  LEU91      -0.2867
    136  CB       -19.9900   27.0500  -13.3120 C.3    91  LEU91       0.0270
    137  CG       -20.6630   25.7910  -13.8620 C.3    91  LEU91       0.0019
    138  CD1      -19.9840   24.5610  -13.2790 C.3    91  LEU91       0.0001
    139  CD2      -22.1470   25.8020  -13.5330 C.3    91  LEU91       0.0001
    140  N        -17.0430   29.6150  -11.4260 N.3    93  VAL93      -0.1245
    141  CA       -16.7640   29.2560  -10.0450 C.3    93  VAL93       0.1561
    142  C        -15.5050   29.9400   -9.5210 C.2    93  VAL93       0.2260
    143  O        -14.4420   29.8640  -10.1340 O.2    93  VAL93      -0.2867
    144  CB       -16.5810   27.7310   -9.8940 C.3    93  VAL93       0.0252
    145  CG1      -16.2280   27.3910   -8.4610 C.3    93  VAL93       0.0019
    146  CG2      -17.8480   27.0110  -10.3170 C.3    93  VAL93       0.0019
    147  N        -13.0220   28.0790   -4.2220 N.3    97  ASN97      -0.1225
    148  CA       -13.9000   26.9480   -3.9690 C.3    97  ASN97       0.1785
    149  C        -13.2380   25.6090   -4.2690 C.2    97  ASN97       0.2597
    150  O        -13.6020   24.5970   -3.6840 O.2    97  ASN97      -0.2718
    151  CB       -15.1860   27.1080   -4.7830 C.3    97  ASN97       0.1169
    152  CG       -16.0110   28.2760   -4.3060 C.2    97  ASN97       0.2627
    153  OD1      -16.5130   29.0760   -5.1020 O.2    97  ASN97      -0.2716
    154  ND2      -16.1530   28.3890   -2.9980 N.am   97  ASN97      -0.0877
    155  N        -12.2650   25.5920   -5.1760 N.am   98  PHE98      -0.1976
    156  CA       -11.5970   24.3340   -5.4710 C.3    98  PHE98       0.1639
    157  C        -10.7240   23.8750   -4.3020 C.2    98  PHE98       0.2290
    158  O        -10.6060   22.6810   -4.0550 O.2    98  PHE98      -0.2864
    159  CB       -10.7950   24.4360   -6.7680 C.3    98  PHE98       0.0560
    160  CG       -11.6670   24.5640   -7.9960 C.ar   98  PHE98      -0.0200
    161  CD1      -12.2490   25.7850   -8.3300 C.ar   98  PHE98      -0.0042
    162  CD2      -11.9410   23.4570   -8.7870 C.ar   98  PHE98      -0.0042
    163  CE1      -13.0980   25.8980   -9.4430 C.ar   98  PHE98      -0.0003
    164  CE2      -12.7860   23.5560   -9.8960 C.ar   98  PHE98      -0.0003
    165  CZ       -13.3670   24.7830  -10.2240 C.ar   98  PHE98      -0.0000
    166  N        -13.2620   22.3520   -1.7790 N.3   101  LEU101     -0.1231
    167  CA       -13.7320   21.0160   -2.1150 C.3   101  LEU101      0.1693
    168  C        -12.6060   19.9810   -1.9290 C.2   101  LEU101      0.2592
    169  O        -12.8300   18.8700   -1.4370 O.2   101  LEU101     -0.2718
    170  CB       -14.2500   20.9990   -3.5570 C.3   101  LEU101      0.0284
    171  CG       -14.9300   19.7080   -4.0280 C.3   101  LEU101      0.0019
    172  CD1      -15.6930   19.9890   -5.3190 C.3   101  LEU101      0.0001
    173  CD2      -13.9000   18.6070   -4.2450 C.3   101  LEU101      0.0001
    174  N        -11.3970   20.3500   -2.3370 N.am  102  SER102     -0.1952
    175  CA       -10.2530   19.4610   -2.2000 C.3   102  SER102      0.1924
    176  C        -10.0090   19.1370   -0.7320 C.2   102  SER102      0.2314
    177  O         -9.7520   17.9910   -0.3790 O.2   102  SER102     -0.2863
    178  CB        -9.0110   20.1180   -2.7970 C.3   102  SER102      0.2116
    179  OG        -9.2090   20.3280   -4.1780 O.3   102  SER102     -0.2180
    180  N        -12.5370   16.7050    0.5560 N.3   105  LEU105     -0.1245
    181  CA       -12.2920   15.3480    0.0890 C.3   105  LEU105      0.1561
    182  C        -11.1600   14.7280    0.9170 C.2   105  LEU105      0.2260
    183  O        -11.1830   13.5320    1.2230 O.2   105  LEU105     -0.2867
    184  CB       -11.9180   15.3530   -1.4000 C.3   105  LEU105      0.0270
    185  CG       -11.4330   14.0290   -2.0060 C.3   105  LEU105      0.0019
    186  CD1      -12.4390   12.9190   -1.7290 C.3   105  LEU105      0.0001
    187  CD2      -11.2390   14.2070   -3.4990 C.3   105  LEU105      0.0001
    188  N         -4.7620   16.9390   -6.2400 N.3   129  LEU129     -0.1245
    189  CA        -6.0050   17.7160   -6.3020 C.3   129  LEU129      0.1561
    190  C         -5.7570   19.1560   -6.7520 C.2   129  LEU129      0.2260
    191  O         -6.6140   19.7820   -7.3910 O.2   129  LEU129     -0.2867
    192  CB        -6.6980   17.7090   -4.9380 C.3   129  LEU129      0.0270
    193  CG        -7.1980   16.3280   -4.4930 C.3   129  LEU129      0.0019
    194  CD1       -7.8140   16.4210   -3.1260 C.3   129  LEU129      0.0001
    195  CD2       -8.2080   15.8010   -5.5050 C.3   129  LEU129      0.0001
    196  N         -5.5160   18.9290  -10.4220 N.3   132  VAL132     -0.1231
    197  CA        -6.8550   18.7900  -10.9870 C.3   132  VAL132      0.1692
    198  C         -7.5620   20.1470  -10.9670 C.2   132  VAL132      0.2592
    199  O         -8.2190   20.5260  -11.9390 O.2   132  VAL132     -0.2718
    200  CB        -7.6930   17.7610  -10.1980 C.3   132  VAL132      0.0266
    201  CG1       -9.1620   17.8980  -10.5450 C.3   132  VAL132      0.0020
    202  CG2       -7.2130   16.3560  -10.5230 C.3   132  VAL132      0.0020
    203  N         -7.3990   20.8870   -9.8730 N.am  133  SER133     -0.1952
    204  CA        -8.0340   22.1910   -9.7400 C.3   133  SER133      0.1924
    205  C         -7.5280   23.2360  -10.7230 C.2   133  SER133      0.2314
    206  O         -8.3140   24.0180  -11.2440 O.2   133  SER133     -0.2863
    207  CB        -7.8740   22.7140   -8.3140 C.3   133  SER133      0.2116
    208  OG        -8.6440   21.9330   -7.4210 O.3   133  SER133     -0.2180
    209  N         -9.1450   22.7230  -14.0960 N.3   136  LEU136     -0.1245
    210  CA       -10.5340   23.1640  -14.1200 C.3   136  LEU136      0.1561
    211  C        -10.6890   24.6780  -14.0840 C.2   136  LEU136      0.2260
    212  O        -11.7300   25.2130  -14.4790 O.2   136  LEU136     -0.2867
    213  CB       -11.2980   22.5430  -12.9460 C.3   136  LEU136      0.0270
    214  CG       -11.9870   21.2000  -13.2050 C.3   136  LEU136      0.0019
    215  CD1      -13.1260   21.4370  -14.1660 C.3   136  LEU136      0.0001
    216  CD2      -11.0250   20.1820  -13.7860 C.3   136  LEU136      0.0001
@<TRIPOS>BOND
     1   106   107    1
     2   114   115    1
     3   100   101    2
     4   100    99    1
     5    98    99    1
     6   115   118    1
     7   115   116    1
     8    99   102    1
     9   107   108    1
    10   107   110    1
    11   118   119    1
    12   108   109    2
    13   119   120    1
    14   119   121    1
    15   113   111    1
    16   116   117    2
    17   116   122   am
    18   110   111    1
    19   111   112    1
    20   102   103    1
    21   122   123    1
    22   132   133    1
    23   103   105    1
    24   103   104    1
    25   124   123    1
    26   124   125    2
    27   212   211    2
    28   123   126    1
    29    78    77    1
    30   215   214    1
    31   210   209    1
    32   210   211    1
    33   210   213    1
    34   128   130   ar
    35   128   127   ar
    36   133   134    1
    37   133   136    1
    38   137   139    1
    39   137   136    1
    40   137   138    1
    41   216   214    1
    42   126   127    1
    43    76    77    1
    44    76    75    1
    45   130   131   ar
    46   134   135    2
    47   127   129   ar
    48   214   213    1
    49    89    88    2
    50    87    90    1
    51    87    88    1
    52    87    86    1
    53    75    74    1
    54   131   129   ar
    55    88    91   am
    56   199   198    2
    57    74    71    1
    58    73    72    2
    59   140   141    1
    60    46    48   ar
    61    46    44   ar
    62   206   205    2
    63    48    47   ar
    64    71    72    1
    65    71    70    1
    66   197   198    1
    67   197   196    1
    68   197   200    1
    69   198   203   am
    70    94    93    2
    71    91    92    1
    72    72    79   am
    73   205   204    1
    74    44    43    1
    75    44    45   ar
    76    93    92    1
    77   201   200    1
    78   202   200    1
    79    47    45   ar
    80    43    40    1
    81   146   144    1
    82   165   164   ar
    83   165   163   ar
    84   143   142    2
    85    92    95    1
    86   141   144    1
    87   141   142    1
    88   164   162   ar
    89   144   145    1
    90   203   204    1
    91   204   207    1
    92    66    68   ar
    93    66    65   ar
    94    79    80    1
    95    68    69   ar
    96    82    81    2
    97    57    59   ar
    98    57    55   ar
    99   163   161   ar
   100    80    81    1
   101    80    83    1
   102    59    58   ar
   103    40    39    1
   104    40    41    1
   105    19    18    2
   106   162   160   ar
   107    42    41    2
   108    61    60    1
   109    61    64    1
   110    61    62    1
   111    95    97    1
   112    95    96    1
   113    63    62    2
   114    55    54   ar
   115    65    64    1
   116    65    67   ar
   117    22    24   ar
   118    22    21   ar
   119    69    67   ar
   120   161   160   ar
   121    24    26   ar
   122    41    49   am
   123   207   208    1
   124    85    83    1
   125   160   159    1
   126    83    84    1
   127    18    17    1
   128    18    28   am
   129    58    56   ar
   130    37    35   ar
   131    37    38   ar
   132    20    17    1
   133    20    21    1
   134    17    16    1
   135    35    33   ar
   136   191   190    2
   137    21    23   ar
   138    49    50    1
   139    38    36   ar
   140    54    56   ar
   141    54    53    1
   142    29    28    1
   143    29    30    1
   144    29    32    1
   145    26    27    1
   146    26    25   ar
   147   159   156    1
   148   190   189    1
   149    30    31    2
   150    33    32    1
   151    33    34   ar
   152    50    53    1
   153    50    51    1
   154    36    34   ar
   155   189   188    1
   156   189   192    1
   157    23    25   ar
   158   195   193    1
   159   156   155    1
   160   156   157    1
   161   172   171    1
   162    51    52    2
   163   155   149   am
   164   153   152    2
   165   192   193    1
   166   151   152    1
   167   151   148    1
   168   193   194    1
   169   152   154   am
   170   157   158    2
   171   149   148    1
   172   149   150    2
   173   173   171    1
   174   147   148    1
   175   179   178    1
   176   171   170    1
   177    12    11    2
   178   170   167    1
   179   187   185    1
   180   178   175    1
   181    11    10    1
   182   174   175    1
   183   174   168   am
   184    10    13    1
   185    10     9    1
   186   175   176    1
   187   167   168    1
   188   167   166    1
   189     8     6    1
   190   185   186    1
   191   185   184    1
   192    13    15    1
   193    13    14    1
   194   168   169    2
   195   184   181    1
   196   176   177    2
   197     6     7    1
   198     6     5    1
   199   181   180    1
   200   181   182    1
   201     5     2    1
   202   182   183    2
   203     2     3    1
   204     2     1    1
   205     3     4    2
