@<TRIPOS>MOLECULE
tmp/1jedA01.pdb
 97 97 0 0 0
SMALL
GASTEIGER

@<TRIPOS>ATOM
      1  N         98.1500  198.3260  155.6620 N.3   224  VAL224     -0.1231
      2  CA        97.0850  198.2810  156.6490 C.3   224  VAL224      0.1692
      3  C         96.2150  199.5230  156.5950 C.2   224  VAL224      0.2593
      4  O         95.3350  199.7000  157.4350 O.2   224  VAL224     -0.2718
      5  CB        97.6500  198.0910  158.0900 C.3   224  VAL224      0.0266
      6  CG1       98.3060  196.7320  158.2020 C.3   224  VAL224      0.0020
      7  CG2       98.6620  199.1740  158.4260 C.3   224  VAL224      0.0020
      8  N         96.4610  200.3750  155.6010 N.am  225  GLY225     -0.1942
      9  CA        95.6860  201.5990  155.4420 C.3   225  GLY225      0.2014
     10  C         94.3310  201.3180  154.8190 C.2   225  GLY225      0.2639
     11  O         93.3720  201.0050  155.5210 O.2   225  GLY225     -0.2714
     12  N         94.2510  201.4440  153.5010 N.am  226  LEU226     -0.1963
     13  CA        93.0280  201.1820  152.7470 C.3   226  LEU226      0.1728
     14  C         93.4450  200.3690  151.5500 C.2   226  LEU226      0.2617
     15  O         94.4520  200.6810  150.9120 O.2   226  LEU226     -0.2715
     16  CB        92.3820  202.4770  152.2350 C.3   226  LEU226      0.0311
     17  CG        91.4830  203.2850  153.1740 C.3   226  LEU226      0.0022
     18  CD1       90.8560  204.4540  152.4200 C.3   226  LEU226      0.0001
     19  CD2       90.4000  202.3680  153.7370 C.3   226  LEU226      0.0001
     20  N         92.6870  199.3290  151.2340 N.am  227  THR227     -0.1937
     21  CA        93.0310  198.5160  150.0810 C.3   227  THR227      0.2028
     22  C         91.8830  198.4830  149.0680 C.2   227  THR227      0.2642
     23  O         91.4770  199.5160  148.5260 O.2   227  THR227     -0.2714
     24  CB        93.4120  197.0760  150.5050 C.3   227  THR227      0.1808
     25  OG1       92.2850  196.4450  151.1130 O.3   227  THR227     -0.2208
     26  CG2       94.5610  197.0890  151.4970 C.3   227  THR227      0.0379
     27  N         91.3620  197.2960  148.8060 N.am  228  LYS228     -0.1963
     28  CA        90.2720  197.1370  147.8560 C.3   228  LYS228      0.1713
     29  C         89.0090  196.7750  148.6300 C.2   228  LYS228      0.2458
     30  O         89.0510  195.9650  149.5680 O.2   228  LYS228     -0.2730
     31  CB        90.6370  196.0250  146.8740 C.3   228  LYS228      0.0311
     32  CG        89.5920  195.6590  145.8590 C.3   228  LYS228      0.0038
     33  CD        90.0780  194.4550  145.0720 C.3   228  LYS228      0.0206
     34  CE        88.9730  193.8780  144.1880 C.3   228  LYS228      0.1093
     35  NZ        89.3170  192.5190  143.6360 N.3   228  LYS228     -0.1314
     36  N         87.8690  197.3910  148.2810 N.am  229  PRO229     -0.2727
     37  CA        86.6670  197.0230  149.0340 C.3   229  PRO229      0.1402
     38  C         86.4250  195.5240  148.8940 C.2   229  PRO229      0.2269
     39  O         86.4150  194.9870  147.7880 O.2   229  PRO229     -0.2865
     40  CB        85.5880  197.8600  148.3700 C.3   229  PRO229      0.0296
     41  CG        86.3450  199.1080  148.0140 C.3   229  PRO229      0.0237
     42  CD        87.6160  198.5570  147.4190 C.3   229  PRO229      0.0939
     43  N         88.3660  193.2900  150.6260 N.3   231  ASP231     -0.1225
     44  CA        89.5670  192.6030  151.0500 C.3   231  ASP231      0.1805
     45  C         89.3490  192.1020  152.4590 C.2   231  ASP231      0.2598
     46  O         88.3860  192.5060  153.1140 O.2   231  ASP231     -0.2718
     47  CB        90.7700  193.5510  151.0370 C.3   231  ASP231      0.1424
     48  CG        91.3780  193.7150  149.6530 C.2   231  ASP231      0.3668
     49  OD1       91.0710  192.8780  148.7810 O.co2 231  ASP231     -0.2456
     50  OD2       92.1740  194.6610  149.4380 O.co2 231  ASP231     -0.2456
     51  N         90.2320  191.2090  152.9100 N.am  232  ILE232     -0.1966
     52  CA        90.1900  190.6800  154.2690 C.3   232  ILE232      0.1727
     53  C         90.6200  191.8640  155.1330 C.2   232  ILE232      0.2616
     54  O         91.5360  192.6030  154.7510 O.2   232  ILE232     -0.2715
     55  CB        91.2120  189.5650  154.4510 C.3   232  ILE232      0.0290
     56  CG1       90.9830  188.4890  153.3970 C.3   232  ILE232      0.0022
     57  CG2       91.1300  189.0080  155.8580 C.3   232  ILE232      0.0023
     58  CD1       89.6880  187.7400  153.5640 C.3   232  ILE232      0.0001
     59  N         89.9700  192.0660  156.2770 N.am  233  ASP233     -0.1957
     60  CA        90.3370  193.1990  157.1270 C.3   233  ASP233      0.1840
     61  C         91.8040  193.0800  157.5270 C.2   233  ASP233      0.2622
     62  O         92.3550  191.9740  157.5670 O.2   233  ASP233     -0.2715
     63  CB        89.4320  193.2720  158.3700 C.3   233  ASP233      0.1450
     64  CG        89.7440  192.2000  159.3960 C.2   233  ASP233      0.3671
     65  OD1       89.6610  190.9980  159.0520 O.co2 233  ASP233     -0.2456
     66  OD2       90.0700  192.5680  160.5490 O.co2 233  ASP233     -0.2456
     67  N         92.4380  194.2110  157.8180 N.am  234  HIS234     -0.1959
     68  CA        93.8460  194.1660  158.1620 C.3   234  HIS234      0.1787
     69  C         94.1700  193.4870  159.4800 C.2   234  HIS234      0.2620
     70  O         95.2570  192.9360  159.6280 O.2   234  HIS234     -0.2715
     71  CB        94.4850  195.5690  158.1000 C.3   234  HIS234      0.0785
     72  CG        93.8420  196.5980  158.9830 C.ar  234  HIS234      0.0821
     73  ND1       93.0360  197.6020  158.4910 N.ar  234  HIS234     -0.2267
     74  CD2       93.9410  196.8170  160.3160 C.ar  234  HIS234      0.1154
     75  CE1       92.6690  198.3960  159.4790 C.ar  234  HIS234      0.1986
     76  NE2       93.2040  197.9420  160.5980 N.ar  234  HIS234     -0.2212
     77  N         93.2400  193.4930  160.4300 N.am  235  HIS235     -0.1973
     78  CA        93.5040  192.8450  161.7100 C.3   235  HIS235      0.1656
     79  C         93.7380  191.3530  161.4690 C.2   235  HIS235      0.2291
     80  O         94.7480  190.7770  161.9080 O.2   235  HIS235     -0.2864
     81  CB        92.3370  193.0480  162.6710 C.3   235  HIS235      0.0771
     82  CG        91.9630  194.4830  162.8700 C.ar  235  HIS235      0.0820
     83  ND1       90.9930  195.1100  162.1190 N.ar  235  HIS235     -0.2267
     84  CD2       92.4450  195.4230  163.7180 C.ar  235  HIS235      0.1154
     85  CE1       90.8940  196.3730  162.4950 C.ar  235  HIS235      0.1986
     86  NE2       91.7650  196.5890  163.4640 N.ar  235  HIS235     -0.2212
     87  N         94.5700  190.0100  158.7950 N.3   237  ARG237     -0.1245
     88  CA        95.7770  189.8900  158.0050 C.3   237  ARG237      0.1563
     89  C         97.0310  190.0390  158.8550 C.2   237  ARG237      0.2260
     90  O         97.9700  189.2650  158.6980 O.2   237  ARG237     -0.2867
     91  CB        95.7490  190.9020  156.8640 C.3   237  ARG237      0.0307
     92  CG        94.7470  190.5080  155.7790 C.3   237  ARG237      0.0489
     93  CD        94.9140  191.3070  154.4900 C.3   237  ARG237      0.2205
     94  NE        94.3970  192.6680  154.6010 N.pl3 237  ARG237     -0.0865
     95  CZ        95.1430  193.7620  154.5290 C.cat 237  ARG237      0.5346
     96  NH1       94.5820  194.9600  154.6400 N.pl3 237  ARG237      0.1354
     97  NH2       96.4500  193.6570  154.3430 N.pl3 237  ARG237      0.1354
@<TRIPOS>BOND
     1    35    34    1
     2    34    33    1
     3    33    32    1
     4    32    31    1
     5    31    28    1
     6    42    41    1
     7    42    36    1
     8    39    38    2
     9    28    29    1
    10    28    27    1
    11    41    40    1
    12    36    29   am
    13    36    37    1
    14    40    37    1
    15    23    22    2
    16    29    30    2
    17    49    48   ar
    18    27    22   am
    19    38    37    1
    20    22    21    1
    21    50    48   ar
    22    48    47    1
    23    21    24    1
    24    21    20    1
    25    24    25    1
    26    24    26    1
    27    43    44    1
    28    15    14    2
    29    47    44    1
    30    44    45    1
    31    20    14   am
    32    14    13    1
    33    16    13    1
    34    16    17    1
    35    18    17    1
    36    45    51   am
    37    45    46    2
    38    13    12    1
    39    51    52    1
    40    17    19    1
    41    56    58    1
    42    56    55    1
    43    12    10   am
    44    52    55    1
    45    52    53    1
    46    97    95    1
    47    55    57    1
    48    93    94    1
    49    93    92    1
    50    95    94    2
    51    95    96    1
    52    54    53    2
    53    10     9    1
    54    10    11    2
    55    53    59   am
    56     9     8    1
    57     8     3   am
    58     1     2    1
    59    92    91    1
    60    59    60    1
    61     3     2    1
    62     3     4    2
    63     2     5    1
    64    91    88    1
    65    60    61    1
    66    60    63    1
    67    61    62    2
    68    61    67   am
    69    67    68    1
    70    88    87    1
    71    88    89    1
    72     5     6    1
    73     5     7    1
    74    71    68    1
    75    71    72    1
    76    68    69    1
    77    63    64    1
    78    73    72   ar
    79    73    75   ar
    80    90    89    2
    81    72    74   ar
    82    65    64   ar
    83    64    66   ar
    84    75    76   ar
    85    69    70    2
    86    69    77   am
    87    74    76   ar
    88    77    78    1
    89    79    78    1
    90    79    80    2
    91    78    81    1
    92    83    85   ar
    93    83    82   ar
    94    85    86   ar
    95    81    82    1
    96    82    84   ar
    97    86    84   ar
