@<TRIPOS>MOLECULE
tmp/1jedB00.pdb
 187 183 0 0 0
SMALL
GASTEIGER

@<TRIPOS>ATOM
      1  N        110.6030  130.5720  183.9300 N.3   193  PHE193     -0.1227
      2  CA       109.4240  131.1960  184.5010 C.3   193  PHE193      0.1736
      3  C        108.2090  130.3490  184.1290 C.2   193  PHE193      0.2595
      4  O        107.9010  130.1860  182.9450 O.2   193  PHE193     -0.2718
      5  CB       109.2550  132.6110  183.9310 C.3   193  PHE193      0.0547
      6  CG       108.0090  133.3190  184.3950 C.ar  193  PHE193     -0.0202
      7  CD1      107.8830  133.7550  185.7050 C.ar  193  PHE193     -0.0042
      8  CD2      106.9650  133.5570  183.5130 C.ar  193  PHE193     -0.0042
      9  CE1      106.7330  134.4210  186.1260 C.ar  193  PHE193     -0.0003
     10  CE2      105.8120  134.2220  183.9310 C.ar  193  PHE193     -0.0003
     11  CZ       105.6970  134.6540  185.2360 C.ar  193  PHE193     -0.0000
     12  N        107.5380  129.8120  185.1500 N.am  194  GLN194     -0.1965
     13  CA       106.3350  129.0030  184.9930 C.3   194  GLN194      0.1733
     14  C        105.1590  129.9670  184.9830 C.2   194  GLN194      0.2617
     15  O        105.2130  131.0000  185.6390 O.2   194  GLN194     -0.2715
     16  CB       106.2160  128.0470  186.1780 C.3   194  GLN194      0.0408
     17  CG       104.8180  127.8830  186.7710 C.3   194  GLN194      0.0908
     18  CD       103.9040  126.9850  185.9360 C.2   194  GLN194      0.2608
     19  OE1      104.3560  126.0120  185.3250 O.2   194  GLN194     -0.2717
     20  NE2      102.6090  127.3010  185.9240 N.am  194  GLN194     -0.0878
     21  N        104.1130  129.6530  184.2220 N.am  195  THR195     -0.1937
     22  CA       102.9240  130.5050  184.1810 C.3   195  THR195      0.2028
     23  C        101.7370  129.8240  183.5160 C.2   195  THR195      0.2642
     24  O        101.9060  129.0250  182.5930 O.2   195  THR195     -0.2714
     25  CB       103.1920  131.8360  183.4460 C.3   195  THR195      0.1808
     26  OG1      102.0800  132.7220  183.6490 O.3   195  THR195     -0.2208
     27  CG2      103.3780  131.5990  181.9490 C.3   195  THR195      0.0379
     28  N        100.5400  130.1610  183.9880 N.am  196  ARG196     -0.1963
     29  CA        99.2940  129.5970  183.4720 C.3   196  ARG196      0.1729
     30  C         98.2640  130.6930  183.2200 C.2   196  ARG196      0.2616
     31  O         97.0990  130.4170  182.9200 O.2   196  ARG196     -0.2715
     32  CB        98.7230  128.5790  184.4640 C.3   196  ARG196      0.0348
     33  CG        98.5960  129.0910  185.9030 C.3   196  ARG196      0.0492
     34  CD        97.7710  128.1420  186.7430 C.3   196  ARG196      0.2205
     35  NE        96.4320  128.6750  186.9410 N.pl3 196  ARG196     -0.0865
     36  CZ        96.1430  129.6890  187.7550 C.cat 196  ARG196      0.5346
     37  NH1       94.8910  130.1130  187.8650 N.pl3 196  ARG196      0.1354
     38  NH2       97.0950  130.2690  188.4790 N.pl3 196  ARG196      0.1354
     39  N         98.6980  131.9390  183.3650 N.am  197  ASN197     -0.1972
     40  CA        97.8300  133.0880  183.1400 C.3   197  ASN197      0.1688
     41  C         98.5490  133.9710  182.1570 C.2   197  ASN197      0.2292
     42  O         99.6580  133.6690  181.7320 O.2   197  ASN197     -0.2864
     43  CB        97.6210  133.9020  184.4250 C.3   197  ASN197      0.1181
     44  CG        96.6850  133.2310  185.4180 C.2   197  ASN197      0.2629
     45  OD1       97.0470  133.0300  186.5760 O.2   197  ASN197     -0.2716
     46  ND2       95.4750  132.8980  184.9790 N.am  197  ASN197     -0.0877
     47  N        104.0430  143.4820  185.5630 N.3   202  ALA202     -0.1231
     48  CA       104.7060  142.9140  186.7250 C.3   202  ALA202      0.1694
     49  C        105.5470  141.6930  186.3550 C.2   202  ALA202      0.2592
     50  O        106.6990  141.5580  186.7830 O.2   202  ALA202     -0.2718
     51  CB       103.6790  142.5270  187.7660 C.3   202  ALA202      0.0304
     52  N        104.9680  140.8020  185.5560 N.am  203  HIS203     -0.1976
     53  CA       105.6490  139.5820  185.1440 C.3   203  HIS203      0.1656
     54  C        106.9070  139.8650  184.3520 C.2   203  HIS203      0.2291
     55  O        107.9760  139.3300  184.6590 O.2   203  HIS203     -0.2864
     56  CB       104.6810  138.7040  184.3570 C.3   203  HIS203      0.0771
     57  CG       103.3940  138.4750  185.0800 C.ar  203  HIS203      0.0820
     58  ND1      102.2800  139.2590  184.8800 N.ar  203  HIS203     -0.2267
     59  CD2      103.0810  137.6320  186.0930 C.ar  203  HIS203      0.1154
     60  CE1      101.3370  138.9130  185.7400 C.ar  203  HIS203      0.1986
     61  NE2      101.7990  137.9280  186.4890 N.ar  203  HIS203     -0.2212
     62  N        109.3940  141.2330  186.7300 N.3   206  LEU206     -0.1245
     63  CA       109.9220  140.2510  187.6510 C.3   206  LEU206      0.1561
     64  C        110.8460  139.2410  186.9530 C.2   206  LEU206      0.2260
     65  O        111.8770  138.8660  187.4980 O.2   206  LEU206     -0.2867
     66  CB       108.7640  139.5770  188.3940 C.3   206  LEU206      0.0270
     67  CG       108.4640  138.0820  188.3440 C.3   206  LEU206      0.0019
     68  CD1      109.6260  137.2370  188.8210 C.3   206  LEU206      0.0001
     69  CD2      107.2760  137.8540  189.2260 C.3   206  LEU206      0.0001
     70  N         98.8160  120.6620  185.0840 N.3   262  MET262     -0.1245
     71  CA        98.9770  121.1590  186.4430 C.3   262  MET262      0.1570
     72  C         98.0460  120.4750  187.4390 C.2   262  MET262      0.2261
     73  O         97.0970  119.8070  187.0610 O.2   262  MET262     -0.2867
     74  CB        98.7450  122.6760  186.4760 C.3   262  MET262      0.0387
     75  CG        99.8280  123.4740  185.7890 C.3   262  MET262      0.0595
     76  SD        99.6510  125.2080  186.1250 S.3   262  MET262     -0.1393
     77  CE       100.0410  125.2320  187.8710 C.3   262  MET262      0.0692
     78  N         97.6200  122.3460  190.5060 N.3   264  MET264     -0.1245
     79  CA        97.3230  123.4920  191.3600 C.3   264  MET264      0.1570
     80  C         97.6520  123.0560  192.7760 C.2   264  MET264      0.2261
     81  O         96.9340  123.4010  193.7190 O.2   264  MET264     -0.2867
     82  CB        95.8440  123.8940  191.2910 C.3   264  MET264      0.0387
     83  CG        95.3200  124.2760  189.9190 C.3   264  MET264      0.0595
     84  SD        96.3100  125.4740  189.0010 S.3   264  MET264     -0.1393
     85  CE        96.4610  126.8240  190.2140 C.3   264  MET264      0.0692
     86  N        112.1350  130.3500  188.8520 N.3   286  ILE286     -0.1231
     87  CA       111.4400  131.3790  189.6060 C.3   286  ILE286      0.1692
     88  C        110.2700  130.8080  190.4060 C.2   286  ILE286      0.2592
     89  O        109.5220  129.9680  189.9160 O.2   286  ILE286     -0.2718
     90  CB       110.8860  132.4770  188.6640 C.3   286  ILE286      0.0266
     91  CG1      112.0170  133.0830  187.8320 C.3   286  ILE286      0.0019
     92  CG2      110.1830  133.5530  189.4760 C.3   286  ILE286      0.0020
     93  CD1      111.5480  134.1200  186.8270 C.3   286  ILE286      0.0001
     94  N        110.1210  131.2590  191.6450 N.am  287  VAL287     -0.1966
     95  CA       109.0110  130.8350  192.4870 C.3   287  VAL287      0.1727
     96  C        108.5360  132.0880  193.1860 C.2   287  VAL287      0.2617
     97  O        109.1450  132.5470  194.1470 O.2   287  VAL287     -0.2715
     98  CB       109.4250  129.7920  193.5300 C.3   287  VAL287      0.0290
     99  CG1      108.2520  129.4770  194.4330 C.3   287  VAL287      0.0023
    100  CG2      109.8980  128.5290  192.8340 C.3   287  VAL287      0.0023
    101  N        107.4550  132.6540  192.6670 N.am  288  GLY288     -0.1940
    102  CA       106.9030  133.8700  193.2230 C.3   288  GLY288      0.2014
    103  C        105.7780  133.6320  194.2060 C.2   288  GLY288      0.2639
    104  O        105.6180  132.5290  194.7190 O.2   288  GLY288     -0.2714
    105  N        104.9930  134.6750  194.4510 N.am  289  ARG289     -0.1963
    106  CA       103.8810  134.6210  195.3940 C.3   289  ARG289      0.1729
    107  C        102.7820  133.6200  195.0170 C.2   289  ARG289      0.2616
    108  O        102.3060  133.6010  193.8910 O.2   289  ARG289     -0.2715
    109  CB       103.2870  136.0230  195.5440 C.3   289  ARG289      0.0348
    110  CG       102.2340  136.1570  196.6290 C.3   289  ARG289      0.0492
    111  CD       101.4910  137.4660  196.4590 C.3   289  ARG289      0.2205
    112  NE       100.1270  137.3550  196.9480 N.pl3 289  ARG289     -0.0865
    113  CZ        99.7960  137.3760  198.2340 C.cat 289  ARG289      0.5346
    114  NH1       98.5240  137.2540  198.5880 N.pl3 289  ARG289      0.1354
    115  NH2      100.7310  137.5430  199.1660 N.pl3 289  ARG289      0.1354
    116  N        102.3820  132.8050  195.9870 N.am  290  ASP290     -0.1957
    117  CA       101.3600  131.7810  195.8030 C.3   290  ASP290      0.1840
    118  C        101.5930  130.9170  194.5670 C.2   290  ASP290      0.2622
    119  O        100.6590  130.6140  193.8230 O.2   290  ASP290     -0.2715
    120  CB        99.9610  132.3980  195.7240 C.3   290  ASP290      0.1450
    121  CG        98.8570  131.3670  195.9760 C.2   290  ASP290      0.3671
    122  OD1       97.6920  131.6010  195.5900 O.co2 290  ASP290     -0.2456
    123  OD2       99.1540  130.3150  196.5750 O.co2 290  ASP290     -0.2456
    124  N        102.8380  130.5030  194.3610 N.am  291  HIS291     -0.1959
    125  CA       103.1760  129.6820  193.2090 C.3   291  HIS291      0.1787
    126  C        102.2530  128.4610  193.1380 C.2   291  HIS291      0.2620
    127  O        102.0350  127.7760  194.1440 O.2   291  HIS291     -0.2715
    128  CB       104.6460  129.2500  193.2950 C.3   291  HIS291      0.0785
    129  CG       105.1750  128.6330  192.0350 C.ar  291  HIS291      0.0821
    130  ND1      104.7800  127.3900  191.5880 N.ar  291  HIS291     -0.2267
    131  CD2      106.0750  129.0850  191.1330 C.ar  291  HIS291      0.1154
    132  CE1      105.4150  127.1040  190.4670 C.ar  291  HIS291      0.1986
    133  NE2      106.2070  128.1160  190.1700 N.ar  291  HIS291     -0.2212
    134  N        101.7050  128.2190  191.9440 N.am  292  ALA292     -0.1963
    135  CA       100.8060  127.0970  191.6440 C.3   292  ALA292      0.1728
    136  C         99.5960  126.9240  192.5770 C.2   292  ALA292      0.2616
    137  O         98.9990  125.8490  192.6360 O.2   292  ALA292     -0.2715
    138  CB       101.6020  125.8040  191.5770 C.3   292  ALA292      0.0334
    139  N         99.2350  127.9860  193.2900 N.am  293  GLY293     -0.1955
    140  CA        98.0950  127.9210  194.1870 C.3   293  GLY293      0.1869
    141  C         96.7770  128.2470  193.4970 C.2   293  GLY293      0.2309
    142  O         96.7400  129.0240  192.5420 O.2   293  GLY293     -0.2863
    143  N        110.6250  135.3850  194.8390 N.3   327  PHE327     -0.1227
    144  CA       110.1680  136.7500  194.7020 C.3   327  PHE327      0.1736
    145  C        109.0320  137.0170  195.6580 C.2   327  PHE327      0.2595
    146  O        108.2100  136.1420  195.9210 O.2   327  PHE327     -0.2718
    147  CB       109.7000  137.0130  193.2740 C.3   327  PHE327      0.0547
    148  CG       110.7560  137.5930  192.3920 C.ar  327  PHE327     -0.0202
    149  CD1      111.0730  138.9430  192.4690 C.ar  327  PHE327     -0.0042
    150  CD2      111.4510  136.7900  191.4980 C.ar  327  PHE327     -0.0042
    151  CE1      112.0680  139.4870  191.6690 C.ar  327  PHE327     -0.0003
    152  CE2      112.4490  137.3240  190.6930 C.ar  327  PHE327     -0.0003
    153  CZ       112.7590  138.6750  190.7770 C.ar  327  PHE327     -0.0000
    154  N        109.0090  138.2330  196.1910 N.am  328  ARG328     -0.1966
    155  CA       107.9610  138.6580  197.1070 C.3   328  ARG328      0.1729
    156  C        106.9560  139.3310  196.1880 C.2   328  ARG328      0.2616
    157  O        107.2970  139.6830  195.0500 O.2   328  ARG328     -0.2715
    158  CB       108.5320  139.6570  198.1170 C.3   328  ARG328      0.0348
    159  CG       107.8380  139.6590  199.4600 C.3   328  ARG328      0.0492
    160  CD       107.4470  138.2510  199.9060 C.3   328  ARG328      0.2205
    161  NE       108.5140  137.4290  200.4920 N.pl3 328  ARG328     -0.0865
    162  CZ       109.5940  136.9770  199.8490 C.cat 328  ARG328      0.5346
    163  NH1      110.4900  136.2280  200.4880 N.pl3 328  ARG328      0.1354
    164  NH2      109.8020  137.2730  198.5760 N.pl3 328  ARG328      0.1354
    165  N        105.7230  139.4850  196.6580 N.am  329  MET329     -0.1963
    166  CA       104.6740  140.1160  195.8620 C.3   329  MET329      0.1736
    167  C        105.2060  141.3080  195.0490 C.2   329  MET329      0.2616
    168  O        105.5900  142.3280  195.6110 O.2   329  MET329     -0.2715
    169  CB       103.5460  140.5610  196.7950 C.3   329  MET329      0.0427
    170  CG       102.5010  141.4220  196.1440 C.3   329  MET329      0.0599
    171  SD       101.8270  140.6080  194.7130 S.3   329  MET329     -0.1393
    172  CE       100.1990  140.1770  195.3040 C.3   329  MET329      0.0692
    173  N        105.2530  141.1730  193.7270 N.am  330  VAL330     -0.1977
    174  CA       105.7380  142.2660  192.8860 C.3   330  VAL330      0.1596
    175  C        104.5840  143.1810  192.5940 C.2   330  VAL330      0.2287
    176  O        103.6410  142.7850  191.9080 O.2   330  VAL330     -0.2864
    177  CB       106.2930  141.7820  191.5380 C.3   330  VAL330      0.0276
    178  CG1      106.4920  142.9830  190.6110 C.3   330  VAL330      0.0022
    179  CG2      107.6190  141.0500  191.7430 C.3   330  VAL330      0.0022
    180  N         97.4470  147.6930  192.8960 N.3   354  ASN354     -0.1240
    181  CA        97.3350  146.3530  192.3710 C.3   354  ASN354      0.1653
    182  C         95.9570  145.9750  191.8480 C.2   354  ASN354      0.2266
    183  O         94.9610  146.0490  192.5650 O.2   354  ASN354     -0.2867
    184  CB        97.7730  145.3640  193.4490 C.3   354  ASN354      0.1155
    185  CG        97.4470  143.9380  193.0920 C.2   354  ASN354      0.2627
    186  OD1       96.5610  143.3240  193.6950 O.2   354  ASN354     -0.2716
    187  ND2       98.1570  143.3970  192.0980 N.am  354  ASN354     -0.0877
@<TRIPOS>BOND
     1    42    41    2
     2    27    25    1
     3    41    40    1
     4    24    23    2
     5    31    30    2
     6     4     3    2
     7    40    39    1
     8    40    43    1
     9    30    39   am
    10    30    29    1
    11    25    26    1
    12    25    22    1
    13    29    28    1
    14    29    32    1
    15     8    10   ar
    16     8     6   ar
    17    23    28   am
    18    23    22    1
    19     1     2    1
    20     5     6    1
    21     5     2    1
    22    10    11   ar
    23     3     2    1
    24     3    12   am
    25    22    21    1
    26    21    14   am
    27    54    55    2
    28    54    53    1
    29    56    57    1
    30    56    53    1
    31     6     7   ar
    32    43    44    1
    33    32    33    1
    34    58    57   ar
    35    58    60   ar
    36    46    44   am
    37    14    13    1
    38    14    15    2
    39    13    12    1
    40    13    16    1
    41    57    59   ar
    42    70    71    1
    43    53    52    1
    44    11     9   ar
    45    19    18    2
    46    44    45    2
    47    52    49   am
    48    47    48    1
    49     7     9   ar
    50    60    61   ar
    51    75    76    1
    52    75    74    1
    53    33    34    1
    54    20    18   am
    55    18    17    1
    56    59    61   ar
    57    76    77    1
    58    16    17    1
    59    49    48    1
    60    49    50    2
    61    71    74    1
    62    71    72    1
    63    48    51    1
    64    62    63    1
    65    34    35    1
    66    93    91    1
    67    35    36    2
    68    64    65    2
    69    64    63    1
    70    73    72    2
    71    63    66    1
    72    36    37    1
    73    36    38    1
    74    91    90    1
    75    67    66    1
    76    67    68    1
    77    67    69    1
    78    90    92    1
    79    90    87    1
    80    86    87    1
    81    84    83    1
    82    84    85    1
    83    87    88    1
    84    89    88    2
    85    83    82    1
    86   133   132   ar
    87   133   131   ar
    88    88    94   am
    89   132   130   ar
    90    78    79    1
    91   178   177    1
    92   152   153   ar
    93   152   150   ar
    94   153   151   ar
    95   131   129   ar
    96    82    79    1
    97    79    80    1
    98   150   148   ar
    99   177   179    1
   100   177   174    1
   101   138   135    1
   102   130   129   ar
   103   135   134    1
   104   135   136    1
   105    94    95    1
   106   151   149   ar
   107   182   181    1
   108   182   183    2
   109   176   175    2
   110   134   126   am
   111   129   128    1
   112   187   185   am
   113   181   180    1
   114   181   184    1
   115   148   149   ar
   116   148   147    1
   117    95    96    1
   118    95    98    1
   119   142   141    2
   120   136   137    2
   121   136   139   am
   122   175   174    1
   123   101    96   am
   124   101   102    1
   125    80    81    2
   126   100    98    1
   127   174   173    1
   128   185   184    1
   129   185   186    2
   130   126   125    1
   131   126   127    2
   132    96    97    2
   133   125   128    1
   134   125   124    1
   135   102   103    1
   136   147   144    1
   137   139   140    1
   138   141   140    1
   139    98    99    1
   140   173   167   am
   141   119   118    2
   142   108   107    2
   143   103   105   am
   144   103   104    2
   145   124   118   am
   146   105   106    1
   147   118   117    1
   148   144   143    1
   149   144   145    1
   150   171   172    1
   151   171   170    1
   152   107   106    1
   153   107   116   am
   154   167   168    2
   155   167   166    1
   156   157   156    2
   157   106   109    1
   158   109   110    1
   159   122   121   ar
   160   145   146    2
   161   145   154   am
   162   120   117    1
   163   120   121    1
   164   117   116    1
   165   166   165    1
   166   166   169    1
   167   121   123   ar
   168   170   169    1
   169   156   165   am
   170   156   155    1
   171   154   155    1
   172   111   110    1
   173   111   112    1
   174   112   113    2
   175   155   158    1
   176   158   159    1
   177   113   114    1
   178   113   115    1
   179   164   162    1
   180   159   160    1
   181   162   163    1
   182   162   161    2
   183   160   161    1
