@<TRIPOS>MOLECULE
tmp/1jeeA02.pdb
 97 97 0 0 0
SMALL
GASTEIGER

@<TRIPOS>ATOM
      1  N         97.8460  198.1720  155.9430 N.3   224  VAL224     -0.1231
      2  CA        96.7810  198.0900  156.9250 C.3   224  VAL224      0.1692
      3  C         96.0280  199.4140  156.9240 C.2   224  VAL224      0.2593
      4  O         95.3060  199.7470  157.8730 O.2   224  VAL224     -0.2718
      5  CB        97.3330  197.8200  158.3150 C.3   224  VAL224      0.0266
      6  CG1       98.1040  196.5200  158.2910 C.3   224  VAL224      0.0020
      7  CG2       98.1980  198.9750  158.7750 C.3   224  VAL224      0.0020
      8  N         96.2010  200.1600  155.8350 N.am  225  GLY225     -0.1942
      9  CA        95.5540  201.4490  155.6950 C.3   225  GLY225      0.2014
     10  C         94.2000  201.3600  155.0220 C.2   225  GLY225      0.2639
     11  O         93.1690  201.5370  155.6560 O.2   225  GLY225     -0.2714
     12  N         94.1900  201.0760  153.7350 N.am  226  LEU226     -0.1963
     13  CA        92.9480  200.9890  152.9950 C.3   226  LEU226      0.1728
     14  C         93.2940  200.2130  151.7550 C.2   226  LEU226      0.2617
     15  O         94.2220  200.5790  151.0430 O.2   226  LEU226     -0.2715
     16  CB        92.4780  202.3910  152.6210 C.3   226  LEU226      0.0311
     17  CG        90.9790  202.6270  152.3220 C.3   226  LEU226      0.0022
     18  CD1       90.5870  203.9970  152.9040 C.3   226  LEU226      0.0001
     19  CD2       90.6630  202.5510  150.7910 C.3   226  LEU226      0.0001
     20  N         92.5580  199.1410  151.4930 N.am  227  THR227     -0.1937
     21  CA        92.8380  198.3070  150.3280 C.3   227  THR227      0.2028
     22  C         91.6300  198.1110  149.4230 C.2   227  THR227      0.2642
     23  O         90.7510  198.9570  149.3550 O.2   227  THR227     -0.2714
     24  CB        93.3510  196.9420  150.7790 C.3   227  THR227      0.1808
     25  OG1       92.3120  196.2430  151.4790 O.3   227  THR227     -0.2208
     26  CG2       94.5340  197.1230  151.7120 C.3   227  THR227      0.0379
     27  N         91.5910  196.9900  148.7220 N.am  228  LYS228     -0.1963
     28  CA        90.4860  196.6970  147.8160 C.3   228  LYS228      0.1713
     29  C         89.2130  196.3660  148.6010 C.2   228  LYS228      0.2458
     30  O         89.2440  195.5970  149.5810 O.2   228  LYS228     -0.2730
     31  CB        90.8530  195.5130  146.9260 C.3   228  LYS228      0.0311
     32  CG        89.8230  195.1760  145.8870 C.3   228  LYS228      0.0038
     33  CD        90.1330  193.8340  145.2530 C.3   228  LYS228      0.0206
     34  CE        89.3240  193.6320  143.9780 C.3   228  LYS228      0.1093
     35  NZ        87.8540  193.8370  144.1770 N.3   228  LYS228     -0.1314
     36  N         88.0750  196.9520  148.1980 N.am  229  PRO229     -0.2727
     37  CA        86.8290  196.6620  148.9130 C.3   229  PRO229      0.1402
     38  C         86.5710  195.1710  148.9310 C.2   229  PRO229      0.2269
     39  O         86.7550  194.4910  147.9200 O.2   229  PRO229     -0.2865
     40  CB        85.7930  197.4240  148.1090 C.3   229  PRO229      0.0296
     41  CG        86.5630  198.6460  147.7140 C.3   229  PRO229      0.0237
     42  CD        87.8910  198.0660  147.2560 C.3   229  PRO229      0.0939
     43  N         88.2340  193.1170  150.8850 N.3   231  ASP231     -0.1225
     44  CA        89.4300  192.4070  151.3010 C.3   231  ASP231      0.1805
     45  C         89.2550  191.9130  152.7180 C.2   231  ASP231      0.2598
     46  O         88.3350  192.3540  153.4060 O.2   231  ASP231     -0.2718
     47  CB        90.6140  193.3440  151.2670 C.3   231  ASP231      0.1424
     48  CG        91.2140  193.4540  149.9100 C.2   231  ASP231      0.3668
     49  OD1       90.6990  192.7790  149.0000 O.co2 231  ASP231     -0.2456
     50  OD2       92.1970  194.2060  149.7520 O.co2 231  ASP231     -0.2456
     51  N         90.1200  191.0050  153.1650 N.am  232  ILE232     -0.1966
     52  CA        90.0550  190.5130  154.5430 C.3   232  ILE232      0.1727
     53  C         90.5180  191.7060  155.3780 C.2   232  ILE232      0.2616
     54  O         91.4470  192.4080  154.9760 O.2   232  ILE232     -0.2715
     55  CB        91.0390  189.3580  154.7860 C.3   232  ILE232      0.0290
     56  CG1       90.7990  188.2340  153.7770 C.3   232  ILE232      0.0022
     57  CG2       90.9110  188.8670  156.2160 C.3   232  ILE232      0.0023
     58  CD1       89.4300  187.5880  153.8610 C.3   232  ILE232      0.0001
     59  N         89.8820  191.9520  156.5230 N.am  233  ASP233     -0.1957
     60  CA        90.2650  193.0950  157.3590 C.3   233  ASP233      0.1840
     61  C         91.7210  192.9610  157.7620 C.2   233  ASP233      0.2622
     62  O         92.2610  191.8390  157.8310 O.2   233  ASP233     -0.2715
     63  CB        89.3920  193.1820  158.6110 C.3   233  ASP233      0.1450
     64  CG        89.6910  192.0850  159.5890 C.2   233  ASP233      0.3671
     65  OD1       89.4150  190.9210  159.2310 O.co2 233  ASP233     -0.2456
     66  OD2       90.2140  192.3680  160.7000 O.co2 233  ASP233     -0.2456
     67  N         92.3630  194.0910  158.0460 N.am  234  HIS234     -0.1959
     68  CA        93.7680  194.0190  158.3970 C.3   234  HIS234      0.1787
     69  C         94.0670  193.3160  159.7230 C.2   234  HIS234      0.2620
     70  O         95.1490  192.7330  159.8780 O.2   234  HIS234     -0.2715
     71  CB        94.4110  195.4080  158.3530 C.3   234  HIS234      0.0785
     72  CG        93.7350  196.4260  159.2140 C.ar  234  HIS234      0.0821
     73  ND1       93.1770  197.5770  158.7030 N.ar  234  HIS234     -0.2267
     74  CD2       93.5280  196.4710  160.5490 C.ar  234  HIS234      0.1154
     75  CE1       92.6500  198.2850  159.6840 C.ar  234  HIS234      0.1986
     76  NE2       92.8490  197.6360  160.8160 N.ar  234  HIS234     -0.2212
     77  N         93.1220  193.3510  160.6670 N.am  235  HIS235     -0.1973
     78  CA        93.3230  192.6960  161.9610 C.3   235  HIS235      0.1656
     79  C         93.5910  191.2020  161.7580 C.2   235  HIS235      0.2291
     80  O         94.5550  190.6190  162.3090 O.2   235  HIS235     -0.2864
     81  CB        92.0950  192.8990  162.8430 C.3   235  HIS235      0.0771
     82  CG        91.7910  194.3390  163.1150 C.ar  235  HIS235      0.0820
     83  ND1       90.8510  195.0490  162.4000 N.ar  235  HIS235     -0.2267
     84  CD2       92.3500  195.2210  163.9810 C.ar  235  HIS235      0.1154
     85  CE1       90.8470  196.3050  162.8070 C.ar  235  HIS235      0.1986
     86  NE2       91.7480  196.4370  163.7640 N.ar  235  HIS235     -0.2212
     87  N         94.4140  189.7660  158.8570 N.3   237  ARG237     -0.1245
     88  CA        95.6490  189.6400  158.1070 C.3   237  ARG237      0.1563
     89  C         96.8930  189.8000  158.9970 C.2   237  ARG237      0.2260
     90  O         97.8480  189.0450  158.8710 O.2   237  ARG237     -0.2867
     91  CB        95.6510  190.6450  156.9620 C.3   237  ARG237      0.0307
     92  CG        94.6460  190.2430  155.8880 C.3   237  ARG237      0.0489
     93  CD        94.8140  191.0260  154.6290 C.3   237  ARG237      0.2205
     94  NE        94.3710  192.4040  154.8040 N.pl3 237  ARG237     -0.0865
     95  CZ        95.1690  193.4700  154.7880 C.cat 237  ARG237      0.5346
     96  NH1       94.6420  194.6800  154.9550 N.pl3 237  ARG237      0.1354
     97  NH2       96.4800  193.3220  154.6010 N.pl3 237  ARG237      0.1354
@<TRIPOS>BOND
     1    34    35    1
     2    34    33    1
     3    33    32    1
     4    32    31    1
     5    31    28    1
     6    42    41    1
     7    42    36    1
     8    41    40    1
     9    28    29    1
    10    28    27    1
    11    39    38    2
    12    40    37    1
    13    36    29   am
    14    36    37    1
    15    29    30    2
    16    27    22   am
    17    37    38    1
    18    49    48   ar
    19    23    22    2
    20    22    21    1
    21    50    48   ar
    22    48    47    1
    23    21    24    1
    24    21    20    1
    25    24    25    1
    26    24    26    1
    27    19    17    1
    28    43    44    1
    29    15    14    2
    30    47    44    1
    31    44    45    1
    32    20    14   am
    33    14    13    1
    34    17    16    1
    35    17    18    1
    36    16    13    1
    37    45    51   am
    38    45    46    2
    39    13    12    1
    40    51    52    1
    41    12    10   am
    42    56    58    1
    43    56    55    1
    44    52    55    1
    45    52    53    1
    46    97    95    1
    47    93    94    1
    48    93    92    1
    49    55    57    1
    50    95    94    2
    51    95    96    1
    52    54    53    2
    53    10    11    2
    54    10     9    1
    55    53    59   am
    56     9     8    1
    57     8     3   am
    58    92    91    1
    59     1     2    1
    60    59    60    1
    61     3     2    1
    62     3     4    2
    63     2     5    1
    64    91    88    1
    65    60    61    1
    66    60    63    1
    67    61    62    2
    68    61    67   am
    69    67    68    1
    70    88    87    1
    71    88    89    1
    72     6     5    1
    73     5     7    1
    74    71    68    1
    75    71    72    1
    76    68    69    1
    77    63    64    1
    78    73    72   ar
    79    73    75   ar
    80    90    89    2
    81    72    74   ar
    82    65    64   ar
    83    64    66   ar
    84    75    76   ar
    85    69    70    2
    86    69    77   am
    87    74    76   ar
    88    77    78    1
    89    79    78    1
    90    79    80    2
    91    78    81    1
    92    83    85   ar
    93    83    82   ar
    94    85    86   ar
    95    81    82    1
    96    82    84   ar
    97    86    84   ar
