@<TRIPOS>MOLECULE
tmp/1jeoA00.pdb
 98 92 0 0 0
SMALL
GASTEIGER

@<TRIPOS>ATOM
      1  N         33.9950   58.2100   75.5230 N.3    45  VAL45      -0.1231
      2  CA        35.2330   58.4890   76.2520 C.3    45  VAL45       0.1692
      3  C         36.1450   59.3320   75.3500 C.2    45  VAL45       0.2593
      4  O         36.0530   59.2490   74.1240 O.2    45  VAL45      -0.2718
      5  CB        35.9350   57.1410   76.6690 C.3    45  VAL45       0.0266
      6  CG1       37.3180   57.3740   77.2570 C.3    45  VAL45       0.0020
      7  CG2       35.0810   56.4050   77.6860 C.3    45  VAL45       0.0020
      8  N         36.9810   60.1660   75.9740 N.am   46  GLY46      -0.1942
      9  CA        37.9250   61.0130   75.2620 C.3    46  GLY46       0.2014
     10  C         37.3050   61.9540   74.2510 C.2    46  GLY46       0.2639
     11  O         36.2720   62.5650   74.5330 O.2    46  GLY46      -0.2714
     12  N         37.8950   62.0100   73.0560 N.am   47  ARG47      -0.1963
     13  CA        37.4120   62.8640   71.9700 C.3    47  ARG47       0.1729
     14  C         36.0250   62.4740   71.4670 C.2    47  ARG47       0.2616
     15  O         35.2420   63.3440   71.0940 O.2    47  ARG47      -0.2715
     16  CB        38.4180   62.9130   70.8280 C.3    47  ARG47       0.0348
     17  CG        39.6080   63.8110   71.1000 C.3    47  ARG47       0.0492
     18  CD        40.6870   63.7280   70.0180 C.3    47  ARG47       0.2205
     19  NE        40.1620   63.8590   68.6560 N.pl3  47  ARG47      -0.0865
     20  CZ        40.4490   64.8480   67.8100 C.cat  47  ARG47       0.5346
     21  NH1       41.2650   65.8370   68.1650 N.pl3  47  ARG47       0.1354
     22  NH2       39.9400   64.8250   66.5820 N.pl3  47  ARG47       0.1354
     23  N         35.7050   61.1760   71.5300 N.am   48  SER48      -0.1950
     24  CA        34.3840   60.6770   71.1270 C.3    48  SER48       0.1924
     25  C         33.3240   61.2010   72.0970 C.2    48  SER48       0.2314
     26  O         32.2050   61.4950   71.6920 O.2    48  SER48      -0.2863
     27  CB        34.3520   59.1500   71.0970 C.3    48  SER48       0.2116
     28  OG        34.9760   58.6610   69.9270 O.3    48  SER48      -0.2180
     29  N         28.9680   56.4260   71.5110 N.3    86  ILE86      -0.1231
     30  CA        29.8730   56.8540   70.4430 C.3    86  ILE86       0.1692
     31  C         31.2620   56.3350   70.7900 C.2    86  ILE86       0.2593
     32  O         31.8270   56.6990   71.8250 O.2    86  ILE86      -0.2718
     33  CB        29.8710   58.4170   70.2790 C.3    86  ILE86       0.0266
     34  CG1       28.4550   58.9000   69.9400 C.3    86  ILE86       0.0019
     35  CG2       30.8180   58.8610   69.1420 C.3    86  ILE86       0.0020
     36  CD1       28.1960   60.3330   70.2580 C.3    86  ILE86       0.0001
     37  N         31.7840   55.4550   69.9360 N.am   87  SER87      -0.1938
     38  CA        33.1040   54.8570   70.1290 C.3    87  SER87       0.2055
     39  C         33.7620   54.4920   68.8010 C.2    87  SER87       0.2644
     40  O         33.1360   53.8680   67.9540 O.2    87  SER87      -0.2714
     41  CB        32.9930   53.6100   71.0100 C.3    87  SER87       0.2130
     42  OG        34.2600   53.0070   71.2050 O.3    87  SER87      -0.2179
     43  N         35.0380   54.8480   68.6520 N.am   88  GLY88      -0.1939
     44  CA        35.7880   54.5520   67.4370 C.3    88  GLY88       0.2014
     45  C         35.9700   53.0720   67.1580 C.2    88  GLY88       0.2639
     46  O         35.4470   52.5550   66.1720 O.2    88  GLY88      -0.2714
     47  N         36.6570   52.3800   68.0620 N.am   89  SER89      -0.1949
     48  CA        36.9090   50.9500   67.9150 C.3    89  SER89       0.1924
     49  C         35.7520   50.0940   68.4160 C.2    89  SER89       0.2314
     50  O         35.6220   48.9370   68.0190 O.2    89  SER89      -0.2863
     51  CB        38.1810   50.5600   68.6690 C.3    89  SER89       0.2116
     52  OG        38.0060   50.7140   70.0690 O.3    89  SER89      -0.2180
     53  N         35.5190   49.0060   71.3740 N.3    91  ARG91      -0.1231
     54  CA        36.0950   48.0690   72.3400 C.3    91  ARG91       0.1694
     55  C         36.4040   48.6600   73.7110 C.2    91  ARG91       0.2592
     56  O         36.7270   47.9100   74.6410 O.2    91  ARG91      -0.2718
     57  CB        37.3840   47.4570   71.7730 C.3    91  ARG91       0.0321
     58  CG        37.2100   46.5430   70.5640 C.3    91  ARG91       0.0489
     59  CD        38.5500   46.0140   70.0580 C.3    91  ARG91       0.2205
     60  NE        39.3710   47.0600   69.4400 N.pl3  91  ARG91      -0.0865
     61  CZ        40.5940   47.4120   69.8410 C.cat  91  ARG91       0.5346
     62  NH1       41.1710   46.8070   70.8750 N.pl3  91  ARG91       0.1354
     63  NH2       41.2390   48.3860   69.2120 N.pl3  91  ARG91       0.1354
     64  N         36.3030   49.9880   73.8360 N.am   92  THR92      -0.1953
     65  CA        36.5990   50.7090   75.0870 C.3    92  THR92       0.1897
     66  C         35.8040   50.1610   76.2790 C.2    92  THR92       0.2313
     67  O         34.5720   50.1350   76.2570 O.2    92  THR92      -0.2863
     68  CB        36.3550   52.2280   74.9210 C.3    92  THR92       0.1794
     69  OG1       36.9210   52.6600   73.6770 O.3    92  THR92      -0.2208
     70  CG2       37.0170   53.0160   76.0540 C.3    92  THR92       0.0378
     71  N         32.9390   52.1220   77.9800 N.3    95  VAL95      -0.1245
     72  CA        31.7350   52.2000   77.1410 C.3    95  VAL95       0.1561
     73  C         30.9510   50.8840   77.2850 C.2    95  VAL95       0.2260
     74  O         29.7230   50.9010   77.3540 O.2    95  VAL95      -0.2867
     75  CB        32.0940   52.5000   75.6410 C.3    95  VAL95       0.0252
     76  CG1       30.8710   52.3520   74.7170 C.3    95  VAL95       0.0019
     77  CG2       32.6490   53.9160   75.5180 C.3    95  VAL95       0.0019
     78  N         44.4870   57.4290   64.9020 N.3   137  MET137     -0.1230
     79  CA        43.4650   56.9200   65.8370 C.3   137  MET137      0.1702
     80  C         42.0470   57.0960   65.2620 C.2   137  MET137      0.2592
     81  O         41.7940   56.7500   64.1050 O.2   137  MET137     -0.2718
     82  CB        43.5650   57.6130   67.2210 C.3   137  MET137      0.0401
     83  CG        44.9600   57.7900   67.8210 C.3   137  MET137      0.0596
     84  SD        45.7980   56.2740   68.2250 S.3   137  MET137     -0.1393
     85  CE        44.9220   55.7980   69.7200 C.3   137  MET137      0.0692
     86  N         41.1670   57.7200   66.0450 N.am  138  GLY138     -0.1957
     87  CA        39.8050   57.9520   65.6150 C.3   138  GLY138      0.1869
     88  C         39.5560   59.3590   65.1100 C.2   138  GLY138      0.2309
     89  O         38.3940   59.7360   64.9750 O.2   138  GLY138     -0.2863
     90  N         35.7900   60.9330   64.5800 N.3   142  GLU142     -0.1245
     91  CA        35.2800   61.9980   65.4530 C.3   142  GLU142      0.1567
     92  C         34.7950   63.2160   64.6570 C.2   142  GLU142      0.2260
     93  O         33.7450   63.7770   64.9690 O.2   142  GLU142     -0.2867
     94  CB        36.3400   62.4070   66.4770 C.3   142  GLU142      0.0388
     95  CG        36.6360   61.3290   67.5240 C.3   142  GLU142      0.1160
     96  CD        38.1210   61.1090   67.7640 C.2   142  GLU142      0.3649
     97  OE1       38.9430   61.9330   67.3110 O.co2 142  GLU142     -0.2457
     98  OE2       38.4770   60.0990   68.4040 O.co2 142  GLU142     -0.2457
@<TRIPOS>BOND
     1    81    80    2
     2    90    91    1
     3    92    93    2
     4    92    91    1
     5    78    79    1
     6    89    88    2
     7    88    87    1
     8    80    79    1
     9    80    86   am
    10    91    94    1
    11    87    86    1
    12    79    82    1
    13    46    45    2
    14    94    95    1
    15    22    20    1
    16    45    44    1
    17    45    47   am
    18    82    83    1
    19    97    96   ar
    20    44    43    1
    21    95    96    1
    22    96    98   ar
    23    20    21    1
    24    20    19    2
    25    83    84    1
    26    48    47    1
    27    48    49    1
    28    48    51    1
    29    40    39    2
    30    50    49    2
    31    84    85    1
    32    43    39   am
    33    19    18    1
    34    51    52    1
    35    39    38    1
    36    35    33    1
    37    63    61    1
    38    60    61    2
    39    60    59    1
    40    61    62    1
    41    28    27    1
    42    37    38    1
    43    37    31   am
    44    34    36    1
    45    34    33    1
    46    18    17    1
    47    59    58    1
    48    38    41    1
    49    33    30    1
    50    30    31    1
    51    30    29    1
    52    58    57    1
    53    31    32    2
    54    16    17    1
    55    16    13    1
    56    41    42    1
    57    15    14    2
    58    27    24    1
    59    24    23    1
    60    24    25    1
    61    53    54    1
    62    14    23   am
    63    14    13    1
    64    26    25    2
    65    57    54    1
    66    13    12    1
    67    54    55    1
    68    12    10   am
    69    69    68    1
    70    55    64   am
    71    55    56    2
    72    64    65    1
    73     4     3    2
    74    10    11    2
    75    10     9    1
    76    76    75    1
    77    68    65    1
    78    68    70    1
    79    65    66    1
    80     9     8    1
    81     3     8   am
    82     3     2    1
    83    77    75    1
    84     1     2    1
    85    75    72    1
    86     2     5    1
    87    67    66    2
    88     5     6    1
    89     5     7    1
    90    72    73    1
    91    72    71    1
    92    73    74    2
