@<TRIPOS>MOLECULE
tmp/1jetA00.pdb
 218 212 0 0 0
SMALL
GASTEIGER

@<TRIPOS>ATOM
      1  N          8.4740   23.6600   12.0470 N.3    32  GLU32      -0.1231
      2  CA         8.3520   22.5800   13.0310 C.3    32  GLU32       0.1699
      3  C          6.9860   21.9230   13.0180 C.2    32  GLU32       0.2593
      4  O          6.8020   20.9310   13.7450 O.2    32  GLU32      -0.2718
      5  CB         8.6400   23.1300   14.4380 C.3    32  GLU32       0.0402
      6  CG         7.5780   24.1010   14.9420 C.3    32  GLU32       0.1161
      7  CD         8.1360   24.9950   16.0270 C.2    32  GLU32       0.3649
      8  OE1        8.2620   24.5110   17.1690 O.co2  32  GLU32      -0.2457
      9  OE2        8.4830   26.1580   15.7220 O.co2  32  GLU32      -0.2457
     10  N          6.0260   22.4360   12.2490 N.am   33  GLY33      -0.1942
     11  CA         4.6830   21.8810   12.3040 C.3    33  GLY33       0.2014
     12  C          4.2280   21.0080   11.1680 C.2    33  GLY33       0.2638
     13  O          4.8460   20.8660   10.1190 O.2    33  GLY33      -0.2714
     14  N          3.0190   20.4420   11.3810 N.am   34  VAL34      -0.1977
     15  CA         2.3760   19.5970   10.3740 C.3    34  VAL34       0.1596
     16  C          2.0670   20.3460    9.1050 C.2    34  VAL34       0.2287
     17  O          2.4420   19.8840    8.0020 O.2    34  VAL34      -0.2864
     18  CB         1.1760   18.8390   10.9680 C.3    34  VAL34       0.0276
     19  CG1        0.3670   18.1320    9.8880 C.3    34  VAL34       0.0022
     20  CG2        1.6830   17.8120   11.9890 C.3    34  VAL34       0.0022
     21  N          5.3300   20.9390    7.2000 N.3    37  SER37      -0.1217
     22  CA         5.8600   19.6920    6.6580 C.3    37  SER37       0.1889
     23  C          5.0510   19.1660    5.4970 C.2    37  SER37       0.2288
     24  O          5.5900   18.5350    4.5830 O.2    37  SER37      -0.2866
     25  CB         5.9480   18.6340    7.7780 C.3    37  SER37       0.2089
     26  OG         6.7750   19.1420    8.8260 O.3    37  SER37      -0.2183
     27  N          7.2690   18.3750    2.1510 N.3    41  ARG41      -0.1245
     28  CA         7.4730   17.0900    1.4780 C.3    41  ARG41       0.1563
     29  C          7.3080   17.1630   -0.0250 C.2    41  ARG41       0.2260
     30  O          7.9160   16.3630   -0.7650 O.2    41  ARG41      -0.2867
     31  CB         6.5430   16.0180    2.0630 C.3    41  ARG41       0.0307
     32  CG         6.9440   15.5830    3.4690 C.3    41  ARG41       0.0489
     33  CD         6.1530   14.3340    3.8690 C.3    41  ARG41       0.2205
     34  NE         4.7240   14.6230    3.9230 N.pl3  41  ARG41      -0.0865
     35  CZ         4.1250   15.2460    4.9350 C.cat  41  ARG41       0.5346
     36  NH1        4.8050   15.6090    6.0150 N.pl3  41  ARG41       0.1354
     37  NH2        2.8180   15.4930    4.8830 N.pl3  41  ARG41       0.1354
     38  N         14.2430   22.8600   14.9700 N.3   109  TYR109     -0.1241
     39  CA        14.6470   21.4790   14.8360 C.3   109  TYR109      0.1605
     40  C         16.1540   21.2740   14.8490 C.2   109  TYR109      0.2264
     41  O         16.6520   20.2320   14.4130 O.2   109  TYR109     -0.2867
     42  CB        14.0400   20.8460   13.5840 C.3   109  TYR109      0.0534
     43  CG        12.8100   20.0220   13.8920 C.ar  109  TYR109     -0.0201
     44  CD1       12.9270   18.7080   14.3290 C.ar  109  TYR109     -0.0009
     45  CD2       11.5390   20.5560   13.7320 C.ar  109  TYR109     -0.0009
     46  CE1       11.8000   17.9480   14.6100 C.ar  109  TYR109      0.0417
     47  CE2       10.4070   19.7960   13.9950 C.ar  109  TYR109      0.0417
     48  CZ        10.5490   18.4920   14.4380 C.ar  109  TYR109      0.1957
     49  OH         9.4170   17.7430   14.6710 O.3   109  TYR109     -0.2866
     50  N         12.2990   13.3460    7.5860 N.3   161  HIS161     -0.1227
     51  CA        11.8300   14.6230    8.1360 C.3   161  HIS161      0.1737
     52  C         12.3480   15.8280    7.3990 C.2   161  HIS161      0.2438
     53  O         13.5100   15.8650    6.9670 O.2   161  HIS161     -0.2733
     54  CB        12.3130   14.6660    9.6090 C.3   161  HIS161      0.0758
     55  CG        11.6650   15.7690   10.3820 C.ar  161  HIS161      0.0818
     56  ND1       12.2530   17.0110   10.5490 N.ar  161  HIS161     -0.2268
     57  CD2       10.4460   15.8240   10.9740 C.ar  161  HIS161      0.1154
     58  CE1       11.4350   17.7850   11.2360 C.ar  161  HIS161      0.1986
     59  NE2       10.3330   17.0890   11.5180 N.ar  161  HIS161     -0.2212
     60  N         11.5510   16.8830    7.2570 N.am  162  PRO162     -0.2729
     61  CA        11.9070   18.0940    6.5520 C.3   162  PRO162      0.1401
     62  C         13.1690   18.7830    7.0140 C.2   162  PRO162      0.2269
     63  O         13.9050   19.3320    6.1620 O.2   162  PRO162     -0.2865
     64  CB        10.7070   19.0690    6.7000 C.3   162  PRO162      0.0296
     65  CG         9.5730   18.0950    6.9290 C.3   162  PRO162      0.0237
     66  CD        10.1520   16.9150    7.7160 C.3   162  PRO162      0.0939
     67  N         -8.0460   19.3280    5.8440 N.3   245  TYR245     -0.1241
     68  CA        -6.9200   19.1660    6.7740 C.3   245  TYR245      0.1605
     69  C         -7.4150   18.0880    7.7460 C.2   245  TYR245      0.2264
     70  O         -8.6240   17.7760    7.7110 O.2   245  TYR245     -0.2867
     71  CB        -6.6220   20.4730    7.4640 C.3   245  TYR245      0.0534
     72  CG        -5.4370   20.4090    8.4050 C.ar  245  TYR245     -0.0201
     73  CD1       -4.1730   20.0960    7.9210 C.ar  245  TYR245     -0.0009
     74  CD2       -5.5920   20.6610    9.7620 C.ar  245  TYR245     -0.0009
     75  CE1       -3.0810   20.0460    8.7690 C.ar  245  TYR245      0.0417
     76  CE2       -4.5030   20.6090   10.6170 C.ar  245  TYR245      0.0417
     77  CZ        -3.2560   20.3000   10.1100 C.ar  245  TYR245      0.1957
     78  OH        -2.1690   20.2510   10.9610 O.3   245  TYR245     -0.2866
     79  N         -8.0870   17.8390   11.0590 N.3   247  ASN247     -0.1240
     80  CA        -8.6260   18.4340   12.2640 C.3   247  ASN247      0.1653
     81  C        -10.1470   18.5060   11.9240 C.2   247  ASN247      0.2266
     82  O        -10.4660   19.2170   10.9500 O.2   247  ASN247     -0.2867
     83  CB        -8.1410   19.8160   12.5860 C.3   247  ASN247      0.1155
     84  CG        -6.9970   20.0160   13.5300 C.2   247  ASN247      0.2627
     85  OD1       -6.4680   19.1110   14.1760 O.2   247  ASN247     -0.2716
     86  ND2       -6.5620   21.2880   13.6450 N.am  247  ASN247     -0.0877
     87  N         -4.1130   27.7420   19.3770 N.3   366  ASN366     -0.1240
     88  CA        -4.0070   28.2980   18.0260 C.3   366  ASN366      0.1653
     89  C         -5.4280   28.3500   17.4530 C.2   366  ASN366      0.2266
     90  O         -6.2120   27.4070   17.6020 O.2   366  ASN366     -0.2867
     91  CB        -3.0760   27.4850   17.1520 C.3   366  ASN366      0.1155
     92  CG        -3.4140   26.0010   17.1010 C.2   366  ASN366      0.2627
     93  OD1       -3.3510   25.3170   18.1190 O.2   366  ASN366     -0.2716
     94  ND2       -3.7550   25.5180   15.9050 N.am  366  ASN366     -0.0877
     95  N        -10.0080   23.4500   18.6270 N.3   371  HIS371     -0.1241
     96  CA        -9.2720   23.8120   19.8440 C.3   371  HIS371      0.1621
     97  C        -10.0460   24.7630   20.7380 C.2   371  HIS371      0.2264
     98  O         -9.9650   24.6210   21.9710 O.2   371  HIS371     -0.2867
     99  CB        -7.8670   24.3510   19.5560 C.3   371  HIS371      0.0745
    100  CG        -7.0680   23.4090   18.6970 C.ar  371  HIS371      0.0817
    101  ND1       -7.0330   22.0530   18.9150 N.ar  371  HIS371     -0.2268
    102  CD2       -6.2770   23.6610   17.6180 C.ar  371  HIS371      0.1154
    103  CE1       -6.2600   21.4980   17.9860 C.ar  371  HIS371      0.1986
    104  NE2       -5.7910   22.4520   17.1970 N.ar  371  HIS371     -0.2212
    105  N         -1.3700   30.2800   14.2090 N.3   397  TRP397     -0.1241
    106  CA        -0.3560   29.2350   14.2830 C.3   397  TRP397      0.1605
    107  C          1.0770   29.6980   14.4260 C.2   397  TRP397      0.2264
    108  O          1.7540   29.3110   15.3980 O.2   397  TRP397     -0.2867
    109  CB        -0.4930   28.3440   13.0410 C.3   397  TRP397      0.0550
    110  CG         0.3710   27.1310   12.9590 C.ar  397  TRP397      0.0003
    111  CD1        1.3160   26.8840   11.9910 C.ar  397  TRP397      0.0946
    112  CD2        0.3550   25.9740   13.8070 C.ar  397  TRP397      0.0152
    113  NE1        1.8860   25.6510   12.2030 N.ar  397  TRP397     -0.2442
    114  CE2        1.3170   25.0690   13.3050 C.ar  397  TRP397      0.0810
    115  CE3       -0.3710   25.6260   14.9470 C.ar  397  TRP397      0.0012
    116  CZ2        1.5650   23.8350   13.8960 C.ar  397  TRP397      0.0191
    117  CZ3       -0.1160   24.3960   15.5390 C.ar  397  TRP397      0.0001
    118  CH2        0.8370   23.5100   15.0150 C.ar  397  TRP397      0.0015
    119  N          3.1950   29.2370   17.9860 N.3   401  LEU401     -0.1245
    120  CA         4.4260   28.4580   18.1500 C.3   401  LEU401      0.1561
    121  C          5.5410   29.3180   18.7250 C.2   401  LEU401      0.2260
    122  O          6.2730   28.8930   19.6260 O.2   401  LEU401     -0.2867
    123  CB         4.8450   27.8250   16.8210 C.3   401  LEU401      0.0270
    124  CG         3.8990   26.7420   16.2700 C.3   401  LEU401      0.0019
    125  CD1        4.2660   26.3720   14.8460 C.3   401  LEU401      0.0001
    126  CD2        3.9110   25.5090   17.1740 C.3   401  LEU401      0.0001
    127  N          5.0650   29.8870   22.4900 N.3   404  ARG404     -0.1245
    128  CA         5.4450   28.7210   23.2990 C.3   404  ARG404      0.1563
    129  C          6.9510   28.6130   23.3960 C.2   404  ARG404      0.2260
    130  O          7.4680   28.3110   24.4750 O.2   404  ARG404     -0.2867
    131  CB         4.8110   27.4600   22.7200 C.3   404  ARG404      0.0307
    132  CG         3.2900   27.4870   22.8930 C.3   404  ARG404      0.0489
    133  CD         2.6330   26.4120   22.0530 C.3   404  ARG404      0.2205
    134  NE         3.1500   25.0870   22.3880 N.pl3 404  ARG404     -0.0865
    135  CZ         3.0430   24.0240   21.6010 C.cat 404  ARG404      0.5346
    136  NH1        2.4470   24.1240   20.4180 N.pl3 404  ARG404      0.1354
    137  NH2        3.5420   22.8560   21.9960 N.pl3 404  ARG404      0.1354
    138  N         -2.5490   24.7060   24.6590 N.3   413  ARG413     -0.1231
    139  CA        -3.0760   23.5040   23.9720 C.3   413  ARG413      0.1694
    140  C         -1.9060   23.0200   23.1180 C.2   413  ARG413      0.2592
    141  O         -1.1170   23.8750   22.6590 O.2   413  ARG413     -0.2718
    142  CB        -4.2820   23.9940   23.2160 C.3   413  ARG413      0.0321
    143  CG        -4.9330   23.1770   22.1680 C.3   413  ARG413      0.0489
    144  CD        -4.2070   23.3500   20.8250 C.3   413  ARG413      0.2205
    145  NE        -3.9300   22.0200   20.3210 N.pl3 413  ARG413     -0.0865
    146  CZ        -3.1520   21.7030   19.3030 C.cat 413  ARG413      0.5346
    147  NH1       -2.5470   22.6340   18.5910 N.pl3 413  ARG413      0.1354
    148  NH2       -3.0230   20.4130   18.9960 N.pl3 413  ARG413      0.1354
    149  N         -1.7140   21.7240   22.9330 N.am  414  ALA414     -0.1966
    150  CA        -0.5720   21.2580   22.1440 C.3   414  ALA414      0.1728
    151  C         -0.8380   19.8970   21.5260 C.2   414  ALA414      0.2617
    152  O         -1.7410   19.1700   21.9320 O.2   414  ALA414     -0.2715
    153  CB         0.6780   21.1750   23.0160 C.3   414  ALA414      0.0334
    154  N         -0.0450   19.5850   20.5150 N.am  415  GLY415     -0.1940
    155  CA        -0.1610   18.3050   19.8150 C.3   415  GLY415      0.2014
    156  C          1.2310   17.9650   19.2790 C.2   415  GLY415      0.2639
    157  O          1.9090   18.8500   18.7340 O.2   415  GLY415     -0.2714
    158  N          1.6640   16.7320   19.4840 N.am  416  TRP416     -0.1959
    159  CA         2.9640   16.3250   18.9570 C.3   416  TRP416      0.1771
    160  C          2.7370   15.0600   18.1210 C.2   416  TRP416      0.2620
    161  O          2.0790   14.1340   18.6160 O.2   416  TRP416     -0.2715
    162  CB         4.0230   16.0530   20.0150 C.3   416  TRP416      0.0590
    163  CG         5.3900   15.8220   19.4150 C.ar  416  TRP416      0.0006
    164  CD1        6.0650   14.6430   19.3130 C.ar  416  TRP416      0.0946
    165  CD2        6.2410   16.8280   18.8450 C.ar  416  TRP416      0.0152
    166  NE1        7.2890   14.8460   18.7110 N.ar  416  TRP416     -0.2442
    167  CE2        7.4160   16.1810   18.4160 C.ar  416  TRP416      0.0810
    168  CE3        6.1270   18.2140   18.6770 C.ar  416  TRP416      0.0012
    169  CZ2        8.4750   16.8750   17.8200 C.ar  416  TRP416      0.0191
    170  CZ3        7.1770   18.9000   18.0810 C.ar  416  TRP416      0.0001
    171  CH2        8.3380   18.2270   17.6630 C.ar  416  TRP416      0.0015
    172  N          3.2220   15.0770   16.8990 N.am  417  CYS417     -0.1954
    173  CA         3.1160   13.9250   16.0130 C.3   417  CYS417      0.1843
    174  C          4.5140   13.3590   15.7770 C.2   417  CYS417      0.2625
    175  O          5.4630   14.1440   15.6320 O.2   417  CYS417     -0.2714
    176  CB         2.4990   14.2850   14.6620 C.3   417  CYS417      0.0997
    177  SG         0.7600   14.7500   14.7870 S.3   417  CYS417     -0.0797
    178  N          4.6350   12.0410   15.7270 N.am  418  ALA418     -0.1963
    179  CA         5.9310   11.4140   15.5010 C.3   418  ALA418      0.1728
    180  C          6.5750   11.8710   14.1940 C.2   418  ALA418      0.2616
    181  O          5.9190   12.0900   13.1730 O.2   418  ALA418     -0.2715
    182  CB         5.7620    9.8860   15.4710 C.3   418  ALA418      0.0334
    183  N          7.9010   11.9960   14.2470 N.am  419  ASP419     -0.1971
    184  CA         8.7000   12.3480   13.0820 C.3   419  ASP419      0.1709
    185  C          9.2560   11.0480   12.4820 C.2   419  ASP419      0.2293
    186  O          9.4910   10.9320   11.2880 O.2   419  ASP419     -0.2864
    187  CB         9.8290   13.2970   13.4740 C.3   419  ASP419      0.1436
    188  CG         9.2980   14.6520   13.9340 C.2   419  ASP419      0.3671
    189  OD1        8.3030   15.1230   13.3240 O.co2 419  ASP419     -0.2456
    190  OD2        9.8610   15.2210   14.8850 O.co2 419  ASP419     -0.2456
    191  N         -4.5520   10.9940   19.1790 N.3   485  TYR485     -0.1241
    192  CA        -5.3170   11.3230   18.0030 C.3   485  TYR485      0.1605
    193  C         -5.5640   10.0940   17.0970 C.2   485  TYR485      0.2264
    194  O         -4.8440    9.1220   17.0920 O.2   485  TYR485     -0.2867
    195  CB        -4.5800   12.2790   17.0840 C.3   485  TYR485      0.0534
    196  CG        -4.3250   13.7070   17.3900 C.ar  485  TYR485     -0.0201
    197  CD1       -3.5100   14.1170   18.4310 C.ar  485  TYR485     -0.0009
    198  CD2       -4.8400   14.7060   16.5530 C.ar  485  TYR485     -0.0009
    199  CE1       -3.2340   15.4550   18.6590 C.ar  485  TYR485      0.0417
    200  CE2       -4.5800   16.0450   16.7800 C.ar  485  TYR485      0.0417
    201  CZ        -3.7640   16.4080   17.8250 C.ar  485  TYR485      0.1957
    202  OH        -3.4870   17.7390   18.0610 O.3   485  TYR485     -0.2866
    203  N          2.1120    8.0920   10.4590 N.3   504  LEU504     -0.1245
    204  CA         2.7380    9.3960   10.5710 C.3   504  LEU504      0.1561
    205  C          2.0940   10.3630    9.5680 C.2   504  LEU504      0.2260
    206  O          2.3810   11.5640    9.5950 O.2   504  LEU504     -0.2867
    207  CB         4.2390    9.3510   10.3340 C.3   504  LEU504      0.0270
    208  CG         5.1270    8.4130   11.1270 C.3   504  LEU504      0.0019
    209  CD1        6.5490    8.9750   11.1900 C.3   504  LEU504      0.0001
    210  CD2        4.6380    8.1240   12.5300 C.3   504  LEU504      0.0001
    211  N          2.6270   10.8800    6.3830 N.3   506  ASN506     -0.1240
    212  CA         3.6050   11.6090    5.5700 C.3   506  ASN506      0.1653
    213  C          3.2260   11.5090    4.0970 C.2   506  ASN506      0.2266
    214  O          3.8150   10.7470    3.3370 O.2   506  ASN506     -0.2867
    215  CB         5.0180   11.0840    5.8090 C.3   506  ASN506      0.1155
    216  CG         5.6020   11.6780    7.0820 C.2   506  ASN506      0.2627
    217  OD1        5.4190   12.8690    7.3540 O.2   506  ASN506     -0.2716
    218  ND2        6.2790   10.8530    7.8660 N.am  506  ASN506     -0.0877
@<TRIPOS>BOND
     1    30    29    2
     2    29    28    1
     3    28    31    1
     4    28    27    1
     5    31    32    1
     6   214   213    2
     7    32    33    1
     8    33    34    1
     9    34    35    2
    10   213   212    1
    11    24    23    2
    12    37    35    1
    13    35    36    1
    14    23    22    1
    15   212   215    1
    16   212   211    1
    17   215   216    1
    18    67    68    1
    19    63    62    2
    20    61    64    1
    21    61    62    1
    22    61    60    1
    23    22    21    1
    24    22    25    1
    25    64    65    1
    26    68    71    1
    27    68    69    1
    28    65    66    1
    29    53    52    2
    30   216   217    2
    31   216   218   am
    32    60    52   am
    33    60    66    1
    34    52    51    1
    35    71    72    1
    36    50    51    1
    37    70    69    2
    38    25    26    1
    39    73    72   ar
    40    73    75   ar
    41    17    16    2
    42    51    54    1
    43    72    74   ar
    44    75    77   ar
    45    16    15    1
    46   205   206    2
    47   205   204    1
    48    54    55    1
    49    74    76   ar
    50    19    18    1
    51    77    76   ar
    52    77    78    1
    53    13    12    2
    54   207   204    1
    55   207   208    1
    56    15    18    1
    57    15    14    1
    58    55    56   ar
    59    55    57   ar
    60   203   204    1
    61    56    58   ar
    62    82    81    2
    63    18    20    1
    64    57    59   ar
    65    79    80    1
    66   208   209    1
    67   208   210    1
    68    12    14   am
    69    12    11    1
    70    58    59   ar
    71   186   185    2
    72    81    80    1
    73   111   113   ar
    74   111   110   ar
    75     1     2    1
    76   113   114   ar
    77    10    11    1
    78    10     3   am
    79    80    83    1
    80   185   184    1
    81    83    84    1
    82   110   109    1
    83   110   112   ar
    84     3     2    1
    85     3     4    2
    86     2     5    1
    87   109   106    1
    88   184   187    1
    89   184   183    1
    90   181   180    2
    91   114   112   ar
    92   114   116   ar
    93   189   188   ar
    94   187   188    1
    95    84    86   am
    96    84    85    2
    97    42    43    1
    98    42    39    1
    99    45    43   ar
   100    45    47   ar
   101   112   115   ar
   102    43    44   ar
   103   116   118   ar
   104   188   190   ar
   105    47    48   ar
   106   180   183   am
   107   180   179    1
   108   105   106    1
   109   106   107    1
   110    44    46   ar
   111    41    40    2
   112   107   108    2
   113    48    46   ar
   114    48    49    1
   115     5     6    1
   116   176   177    1
   117   176   173    1
   118    39    40    1
   119    39    38    1
   120   125   124    1
   121     6     7    1
   122   115   117   ar
   123   118   117   ar
   124   182   179    1
   125   179   178    1
   126   175   174    2
   127     9     7   ar
   128   178   174   am
   129   174   173    1
   130    94    92   am
   131   173   172    1
   132     7     8   ar
   133   124   123    1
   134   124   126    1
   135   198   200   ar
   136   198   196   ar
   137   200   201   ar
   138   123   120    1
   139   172   160   am
   140   195   196    1
   141   195   192    1
   142   194   193    2
   143   193   192    1
   144    92    91    1
   145    92    93    2
   146    91    88    1
   147   104   102   ar
   148   104   103   ar
   149   196   197   ar
   150    89    90    2
   151    89    88    1
   152   102   100   ar
   153   171   169   ar
   154   171   170   ar
   155   169   167   ar
   156   201   202    1
   157   201   199   ar
   158   103   101   ar
   159   119   120    1
   160   192   191    1
   161    88    87    1
   162   170   168   ar
   163   160   161    2
   164   160   159    1
   165   120   121    1
   166   167   166   ar
   167   167   165   ar
   168   197   199   ar
   169   147   146    1
   170    95    96    1
   171   168   165   ar
   172   100   101   ar
   173   100    99    1
   174   166   164   ar
   175   121   122    2
   176   157   156    2
   177   165   163   ar
   178   159   158    1
   179   159   162    1
   180   148   146    1
   181   156   158   am
   182   156   155    1
   183   146   145    2
   184   164   163   ar
   185   163   162    1
   186    99    96    1
   187   155   154    1
   188    96    97    1
   189   145   144    1
   190   136   135    1
   191   154   151   am
   192    97    98    2
   193   144   143    1
   194   151   152    2
   195   151   150    1
   196   135   137    1
   197   135   134    2
   198   133   134    1
   199   133   132    1
   200   150   149    1
   201   150   153    1
   202   143   142    1
   203   127   128    1
   204   141   140    2
   205   131   132    1
   206   131   128    1
   207   149   140   am
   208   140   139    1
   209   142   139    1
   210   128   129    1
   211   129   130    2
   212   139   138    1
