@<TRIPOS>MOLECULE
tmp/1jeuA00.pdb
 247 239 0 0 0
SMALL
GASTEIGER

@<TRIPOS>ATOM
      1  N          8.5970   23.7950   12.0150 N.3    32  GLU32      -0.1231
      2  CA         8.4660   22.7380   13.0110 C.3    32  GLU32       0.1699
      3  C          7.1060   22.0640   13.0370 C.2    32  GLU32       0.2593
      4  O          6.9530   21.1420   13.8470 O.2    32  GLU32      -0.2718
      5  CB         8.7940   23.2740   14.4230 C.3    32  GLU32       0.0402
      6  CG         7.7810   24.2750   14.9500 C.3    32  GLU32       0.1161
      7  CD         8.3360   25.1680   16.0350 C.2    32  GLU32       0.3649
      8  OE1        8.5360   24.7000   17.1680 O.co2  32  GLU32      -0.2457
      9  OE2        8.5860   26.3640   15.7550 O.co2  32  GLU32      -0.2457
     10  N          6.1270   22.4810   12.2390 N.am   33  GLY33      -0.1942
     11  CA         4.7950   21.8950   12.3190 C.3    33  GLY33       0.2014
     12  C          4.3500   21.0120   11.1840 C.2    33  GLY33       0.2639
     13  O          4.9850   20.8910   10.1410 O.2    33  GLY33      -0.2714
     14  N          3.1480   20.4170   11.3490 N.am   34  VAL34      -0.1963
     15  CA         2.5150   19.5610   10.3510 C.3    34  VAL34       0.1712
     16  C          2.1800   20.3020    9.0780 C.2    34  VAL34       0.2458
     17  O          2.5270   19.8660    7.9650 O.2    34  VAL34      -0.2730
     18  CB         1.2990   18.8180   10.9360 C.3    34  VAL34       0.0289
     19  CG1        0.5300   18.0470    9.8730 C.3    34  VAL34       0.0023
     20  CG2        1.7520   17.8520   12.0320 C.3    34  VAL34       0.0023
     21  N          1.5550   21.4720    9.1500 N.am   35  PRO35      -0.2727
     22  CA         1.2360   22.2780    7.9760 C.3    35  PRO35       0.1402
     23  C          2.4940   22.6000    7.1740 C.2    35  PRO35       0.2269
     24  O          2.5330   22.4700    5.9510 O.2    35  PRO35      -0.2865
     25  CB         0.5690   23.5760    8.4820 C.3    35  PRO35       0.0296
     26  CG         0.0420   23.1080    9.8260 C.3    35  PRO35       0.0237
     27  CD         1.0520   22.0850   10.3690 C.3    35  PRO35       0.0939
     28  N          5.4250   20.9790    7.1870 N.3    37  SER37      -0.1217
     29  CA         5.9770   19.7480    6.6360 C.3    37  SER37       0.1889
     30  C          5.1670   19.2020    5.4780 C.2    37  SER37       0.2288
     31  O          5.7390   18.5740    4.5720 O.2    37  SER37      -0.2866
     32  CB         6.1270   18.6870    7.7360 C.3    37  SER37       0.2089
     33  OG         6.9420   19.1760    8.7890 O.3    37  SER37      -0.2183
     34  N          7.4680   18.4530    2.0370 N.3    41  ARG41      -0.1245
     35  CA         7.6960   17.1730    1.3570 C.3    41  ARG41       0.1563
     36  C          7.5150   17.2480   -0.1490 C.2    41  ARG41       0.2260
     37  O          8.1460   16.4870   -0.9080 O.2    41  ARG41      -0.2867
     38  CB         6.8140   16.0790    1.9550 C.3    41  ARG41       0.0307
     39  CG         7.2170   15.6330    3.3480 C.3    41  ARG41       0.0489
     40  CD         6.4220   14.4050    3.7920 C.3    41  ARG41       0.2205
     41  NE         4.9830   14.6640    3.8330 N.pl3  41  ARG41      -0.0865
     42  CZ         4.3700   15.2510    4.8570 C.cat  41  ARG41       0.5346
     43  NH1        5.0610   15.5990    5.9310 N.pl3  41  ARG41       0.1354
     44  NH2        3.0660   15.4780    4.8210 N.pl3  41  ARG41       0.1354
     45  N         14.5000   23.0340   15.0880 N.3   109  TYR109     -0.1241
     46  CA        14.9160   21.6630   14.9460 C.3   109  TYR109      0.1605
     47  C         16.4280   21.4860   14.9920 C.2   109  TYR109      0.2264
     48  O         16.9630   20.4380   14.5920 O.2   109  TYR109     -0.2867
     49  CB        14.2850   21.0390   13.7000 C.3   109  TYR109      0.0534
     50  CG        13.0490   20.2030   13.9650 C.ar  109  TYR109     -0.0201
     51  CD1       13.1550   18.8920   14.4260 C.ar  109  TYR109     -0.0009
     52  CD2       11.7680   20.7030   13.7440 C.ar  109  TYR109     -0.0009
     53  CE1       12.0350   18.1080   14.6590 C.ar  109  TYR109      0.0417
     54  CE2       10.6410   19.9230   13.9650 C.ar  109  TYR109      0.0417
     55  CZ        10.7800   18.6290   14.4280 C.ar  109  TYR109      0.1957
     56  OH         9.6610   17.8520   14.6400 O.3   109  TYR109     -0.2866
     57  N         12.6710   13.4740    7.5910 N.3   161  HIS161     -0.1227
     58  CA        12.1790   14.7450    8.1230 C.3   161  HIS161      0.1737
     59  C         12.6550   15.9700    7.3990 C.2   161  HIS161      0.2438
     60  O         13.8140   16.0150    6.9660 O.2   161  HIS161     -0.2733
     61  CB        12.6650   14.7750    9.5940 C.3   161  HIS161      0.0758
     62  CG        12.0010   15.8510   10.3880 C.ar  161  HIS161      0.0818
     63  ND1       12.5600   17.0950   10.5770 N.ar  161  HIS161     -0.2268
     64  CD2       10.7830   15.8790   10.9760 C.ar  161  HIS161      0.1154
     65  CE1       11.7300   17.8330   11.2820 C.ar  161  HIS161      0.1986
     66  NE2       10.6420   17.1150   11.5510 N.ar  161  HIS161     -0.2212
     67  N         11.8690   17.0310    7.2860 N.am  162  PRO162     -0.2729
     68  CA        12.2150   18.2610    6.5970 C.3   162  PRO162      0.1401
     69  C         13.4890   18.9430    7.0240 C.2   162  PRO162      0.2269
     70  O         14.2030   19.5250    6.1760 O.2   162  PRO162     -0.2865
     71  CB        11.0230   19.2470    6.7850 C.3   162  PRO162      0.0296
     72  CG         9.8900   18.2780    7.0350 C.3   162  PRO162      0.0237
     73  CD        10.4690   17.0590    7.7490 C.3   162  PRO162      0.0939
     74  N         -8.1380   19.0490    5.7940 N.3   245  TYR245     -0.1241
     75  CA        -7.0250   18.9230    6.7330 C.3   245  TYR245      0.1605
     76  C         -7.4750   17.8550    7.7370 C.2   245  TYR245      0.2264
     77  O         -8.6680   17.4750    7.6950 O.2   245  TYR245     -0.2867
     78  CB        -6.7080   20.2440    7.4060 C.3   245  TYR245      0.0534
     79  CG        -5.5040   20.1760    8.3270 C.ar  245  TYR245     -0.0201
     80  CD1       -4.2470   19.8780    7.8180 C.ar  245  TYR245     -0.0009
     81  CD2       -5.6260   20.3920    9.6870 C.ar  245  TYR245     -0.0009
     82  CE1       -3.1440   19.7920    8.6420 C.ar  245  TYR245      0.0417
     83  CE2       -4.5200   20.3150   10.5220 C.ar  245  TYR245      0.0417
     84  CZ        -3.2860   20.0130    9.9900 C.ar  245  TYR245      0.1957
     85  OH        -2.1860   19.9210   10.8180 O.3   245  TYR245     -0.2866
     86  N         -7.9740   17.5250   11.2690 N.3   247  ASN247     -0.1240
     87  CA        -8.3880   18.0680   12.5690 C.3   247  ASN247      0.1653
     88  C         -9.9140   18.2090   12.3350 C.2   247  ASN247      0.2266
     89  O        -10.2470   18.9080   11.3340 O.2   247  ASN247     -0.2867
     90  CB        -7.7350   19.3770   12.8470 C.3   247  ASN247      0.1155
     91  CG        -6.9550   19.6800   14.0720 C.2   247  ASN247      0.2627
     92  OD1       -6.3490   18.8940   14.7920 O.2   247  ASN247     -0.2716
     93  ND2       -6.8940   20.9980   14.3920 N.am  247  ASN247     -0.0877
     94  N         -2.5000   17.2050   24.2280 N.3   274  TYR274     -0.1241
     95  CA        -2.2700   17.4420   25.6470 C.3   274  TYR274      0.1605
     96  C         -2.3210   18.9210   26.0050 C.2   274  TYR274      0.2264
     97  O         -2.3230   19.7630   25.1140 O.2   274  TYR274     -0.2867
     98  CB        -0.9260   16.8560   26.0900 C.3   274  TYR274      0.0534
     99  CG         0.3340   17.3930   25.4720 C.ar  274  TYR274     -0.0201
    100  CD1        0.7290   17.0410   24.1890 C.ar  274  TYR274     -0.0009
    101  CD2        1.1800   18.2420   26.1870 C.ar  274  TYR274     -0.0009
    102  CE1        1.8950   17.5210   23.6230 C.ar  274  TYR274      0.0417
    103  CE2        2.3510   18.7350   25.6340 C.ar  274  TYR274      0.0417
    104  CZ         2.7010   18.3700   24.3520 C.ar  274  TYR274      0.1957
    105  OH         3.8650   18.8430   23.7880 O.3   274  TYR274     -0.2866
    106  N         -4.5070   27.7820   19.6710 N.3   366  ASN366     -0.1240
    107  CA        -4.3990   28.3490   18.3260 C.3   366  ASN366      0.1653
    108  C         -5.7950   28.3280   17.6950 C.2   366  ASN366      0.2266
    109  O         -6.5490   27.3650   17.8870 O.2   366  ASN366     -0.2867
    110  CB        -3.3890   27.6030   17.4690 C.3   366  ASN366      0.1155
    111  CG        -3.6410   26.1140   17.3540 C.2   366  ASN366      0.2627
    112  OD1       -3.6360   25.3940   18.3520 O.2   366  ASN366     -0.2716
    113  ND2       -3.8390   25.6340   16.1320 N.am  366  ASN366     -0.0877
    114  N        -10.2280   23.3130   18.8280 N.3   371  HIS371     -0.1241
    115  CA        -9.5230   23.7280   20.0450 C.3   371  HIS371      0.1621
    116  C        -10.3510   24.6650   20.9070 C.2   371  HIS371      0.2264
    117  O        -10.2860   24.5660   22.1380 O.2   371  HIS371     -0.2867
    118  CB        -8.1390   24.3210   19.7540 C.3   371  HIS371      0.0745
    119  CG        -7.2570   23.4030   18.9570 C.ar  371  HIS371      0.0817
    120  ND1       -7.1610   22.0520   19.1960 N.ar  371  HIS371     -0.2268
    121  CD2       -6.4220   23.6730   17.9180 C.ar  371  HIS371      0.1154
    122  CE1       -6.3200   21.5170   18.3250 C.ar  371  HIS371      0.1986
    123  NE2       -5.8540   22.4780   17.5380 N.ar  371  HIS371     -0.2212
    124  N         -1.5120   30.3880   14.4240 N.3   397  TRP397     -0.1241
    125  CA        -0.4860   29.3630   14.5000 C.3   397  TRP397      0.1605
    126  C          0.9500   29.8140   14.6730 C.2   397  TRP397      0.2264
    127  O          1.6510   29.3780   15.6020 O.2   397  TRP397     -0.2867
    128  CB        -0.5780   28.4840   13.2450 C.3   397  TRP397      0.0550
    129  CG         0.3120   27.3010   13.1180 C.ar  397  TRP397      0.0003
    130  CD1        1.2550   27.1060   12.1380 C.ar  397  TRP397      0.0946
    131  CD2        0.3180   26.1020   13.9060 C.ar  397  TRP397      0.0152
    132  NE1        1.8570   25.8850   12.2870 N.ar  397  TRP397     -0.2442
    133  CE2        1.3020   25.2430   13.3700 C.ar  397  TRP397      0.0810
    134  CE3       -0.3870   25.6870   15.0420 C.ar  397  TRP397      0.0012
    135  CZ2        1.5910   23.9980   13.9220 C.ar  397  TRP397      0.0191
    136  CZ3       -0.1040   24.4440   15.5750 C.ar  397  TRP397      0.0001
    137  CH2        0.8780   23.6060   15.0220 C.ar  397  TRP397      0.0015
    138  N          3.1180   29.3670   18.2640 N.3   401  LEU401     -0.1245
    139  CA         4.3500   28.5960   18.4570 C.3   401  LEU401      0.1561
    140  C          5.4560   29.4580   19.0550 C.2   401  LEU401      0.2260
    141  O          6.2110   29.0240   19.9300 O.2   401  LEU401     -0.2867
    142  CB         4.7930   27.9540   17.1450 C.3   401  LEU401      0.0270
    143  CG         3.8490   26.8910   16.5600 C.3   401  LEU401      0.0019
    144  CD1        4.3050   26.4880   15.1720 C.3   401  LEU401      0.0001
    145  CD2        3.7340   25.6910   17.4910 C.3   401  LEU401      0.0001
    146  N          4.9090   29.9810   22.8160 N.3   404  ARG404     -0.1245
    147  CA         5.2930   28.7960   23.5800 C.3   404  ARG404      0.1563
    148  C          6.7940   28.6710   23.7180 C.2   404  ARG404      0.2260
    149  O          7.2590   28.3420   24.8180 O.2   404  ARG404     -0.2867
    150  CB         4.6560   27.5460   22.9620 C.3   404  ARG404      0.0307
    151  CG         3.1430   27.4820   23.1800 C.3   404  ARG404      0.0489
    152  CD         2.4800   26.4390   22.2890 C.3   404  ARG404      0.2205
    153  NE         2.9480   25.0970   22.5870 N.pl3 404  ARG404     -0.0865
    154  CZ         2.8440   24.0340   21.8050 C.cat 404  ARG404      0.5346
    155  NH1        2.2660   24.1130   20.6150 N.pl3 404  ARG404      0.1354
    156  NH2        3.3290   22.8550   22.2150 N.pl3 404  ARG404      0.1354
    157  N         -2.7450   24.7040   24.8790 N.3   413  ARG413     -0.1245
    158  CA        -3.1870   23.4860   24.1510 C.3   413  ARG413      0.1563
    159  C         -1.9630   23.0440   23.3510 C.2   413  ARG413      0.2260
    160  O         -1.2190   23.9120   22.8450 O.2   413  ARG413     -0.2867
    161  CB        -4.3900   23.8840   23.3530 C.3   413  ARG413      0.0307
    162  CG        -5.0610   22.9330   22.4100 C.3   413  ARG413      0.0489
    163  CD        -4.5330   23.2490   20.9990 C.3   413  ARG413      0.2205
    164  NE        -3.8430   22.1720   20.4330 N.pl3 413  ARG413     -0.0865
    165  CZ        -2.9970   21.9420   19.4670 C.cat 413  ARG413      0.5346
    166  NH1       -2.5000   22.8500   18.6510 N.pl3 413  ARG413      0.1354
    167  NH2       -2.6470   20.6590   19.3190 N.pl3 413  ARG413      0.1354
    168  N          0.1990   19.5680   20.9970 N.3   415  GLY415     -0.1210
    169  CA         0.1150   18.3060   20.2820 C.3   415  GLY415      0.1956
    170  C          1.4180   18.0130   19.5390 C.2   415  GLY415      0.2612
    171  O          1.9410   18.8770   18.8390 O.2   415  GLY415     -0.2717
    172  N          1.9130   16.7920   19.7000 N.am  416  TRP416     -0.1962
    173  CA         3.1410   16.3650   19.0390 C.3   416  TRP416      0.1771
    174  C          2.8750   15.1070   18.2250 C.2   416  TRP416      0.2620
    175  O          2.2270   14.1780   18.7270 O.2   416  TRP416     -0.2715
    176  CB         4.2620   16.0730   20.0530 C.3   416  TRP416      0.0590
    177  CG         5.6140   15.7650   19.4670 C.ar  416  TRP416      0.0006
    178  CD1        6.2170   14.5400   19.3850 C.ar  416  TRP416      0.0946
    179  CD2        6.5560   16.7020   18.9220 C.ar  416  TRP416      0.0152
    180  NE1        7.4600   14.6610   18.8050 N.ar  416  TRP416     -0.2442
    181  CE2        7.6890   15.9760   18.5160 C.ar  416  TRP416      0.0810
    182  CE3        6.5320   18.0870   18.7310 C.ar  416  TRP416      0.0012
    183  CZ2        8.7930   16.5910   17.9200 C.ar  416  TRP416      0.0191
    184  CZ3        7.6270   18.7000   18.1440 C.ar  416  TRP416      0.0001
    185  CH2        8.7460   17.9460   17.7460 C.ar  416  TRP416      0.0015
    186  N          3.3470   15.0850   16.9950 N.am  417  CYS417     -0.1954
    187  CA         3.2660   13.9270   16.1150 C.3   417  CYS417      0.1843
    188  C          4.6830   13.3800   15.8910 C.2   417  CYS417      0.2625
    189  O          5.6310   14.1750   15.7400 O.2   417  CYS417     -0.2714
    190  CB         2.6660   14.2780   14.7610 C.3   417  CYS417      0.0997
    191  SG         0.9150   14.7330   14.8040 S.3   417  CYS417     -0.0797
    192  N          4.8570   12.0770   15.8590 N.am  418  ALA418     -0.1963
    193  CA         6.1790   11.4790   15.6540 C.3   418  ALA418      0.1728
    194  C          6.8370   11.9140   14.3530 C.2   418  ALA418      0.2616
    195  O          6.1710   12.1410   13.3360 O.2   418  ALA418     -0.2715
    196  CB         6.0270    9.9500   15.6550 C.3   418  ALA418      0.0334
    197  N          8.1730   12.0190   14.3650 N.am  419  ASP419     -0.1971
    198  CA         8.9400   12.3670   13.1680 C.3   419  ASP419      0.1709
    199  C          9.5180   11.0820   12.5530 C.2   419  ASP419      0.2293
    200  O          9.7610   10.9780   11.3590 O.2   419  ASP419     -0.2864
    201  CB        10.0380   13.3700   13.5070 C.3   419  ASP419      0.1436
    202  CG         9.4810   14.7230   13.9550 C.2   419  ASP419      0.3671
    203  OD1        8.4870   15.1910   13.3420 O.co2 419  ASP419     -0.2456
    204  OD2       10.0290   15.3320   14.9000 O.co2 419  ASP419     -0.2456
    205  N         13.0930   21.6590   20.8550 N.3   436  ASN436     -0.1240
    206  CA        11.6820   21.3670   20.7520 C.3   436  ASN436      0.1653
    207  C         10.9690   21.3630   22.1070 C.2   436  ASN436      0.2266
    208  O          9.7500   21.1210   22.1490 O.2   436  ASN436     -0.2867
    209  CB        11.4520   19.9830   20.1160 C.3   436  ASN436      0.1155
    210  CG        12.0150   19.8550   18.7210 C.2   436  ASN436      0.2627
    211  OD1       12.9590   19.1010   18.4790 O.2   436  ASN436     -0.2716
    212  ND2       11.4340   20.6000   17.7730 N.am  436  ASN436     -0.0877
    213  N          9.0330   22.9480   24.6380 N.3   438  THR438     -0.1218
    214  CA         8.1760   24.0960   24.9060 C.3   438  THR438      0.1862
    215  C          7.4860   23.9770   26.2570 C.2   438  THR438      0.2287
    216  O          6.8120   24.8900   26.7270 O.2   438  THR438     -0.2866
    217  CB         7.1380   24.3230   23.7960 C.3   438  THR438      0.1770
    218  OG1        6.4700   23.0980   23.4830 O.3   438  THR438     -0.2211
    219  CG2        7.8120   24.8520   22.5300 C.3   438  THR438      0.0375
    220  N         -4.6110   11.0540   19.1700 N.3   485  TYR485     -0.1241
    221  CA        -5.3350   11.4240   17.9750 C.3   485  TYR485      0.1605
    222  C         -5.5630   10.2110   17.0450 C.2   485  TYR485      0.2264
    223  O         -4.8780    9.2000   17.1110 O.2   485  TYR485     -0.2867
    224  CB        -4.5800   12.4300   17.1250 C.3   485  TYR485      0.0534
    225  CG        -4.2960   13.8390   17.4880 C.ar  485  TYR485     -0.0201
    226  CD1       -3.3520   14.1910   18.4400 C.ar  485  TYR485     -0.0009
    227  CD2       -4.9150   14.8960   16.8180 C.ar  485  TYR485     -0.0009
    228  CE1       -3.0500   15.5120   18.7250 C.ar  485  TYR485      0.0417
    229  CE2       -4.6450   16.2190   17.1070 C.ar  485  TYR485      0.0417
    230  CZ        -3.7060   16.5220   18.0650 C.ar  485  TYR485      0.1957
    231  OH        -3.4010   17.8310   18.3690 O.3   485  TYR485     -0.2866
    232  N          2.3650    8.0400   10.4450 N.3   504  LEU504     -0.1245
    233  CA         2.9580    9.3600   10.5530 C.3   504  LEU504      0.1561
    234  C          2.3300   10.3140    9.5200 C.2   504  LEU504      0.2260
    235  O          2.6000   11.5160    9.5320 O.2   504  LEU504     -0.2867
    236  CB         4.4590    9.3690   10.3800 C.3   504  LEU504      0.0270
    237  CG         5.3850    8.4280   11.1150 C.3   504  LEU504      0.0019
    238  CD1        6.8160    8.9890   11.0840 C.3   504  LEU504      0.0001
    239  CD2        4.9960    8.1380   12.5410 C.3   504  LEU504      0.0001
    240  N          2.8630   10.8730    6.3060 N.3   506  ASN506     -0.1240
    241  CA         3.8340   11.5940    5.4870 C.3   506  ASN506      0.1653
    242  C          3.4760   11.4770    4.0090 C.2   506  ASN506      0.2266
    243  O          4.1030   10.7670    3.2310 O.2   506  ASN506     -0.2867
    244  CB         5.2360   11.0590    5.7700 C.3   506  ASN506      0.1155
    245  CG         5.8540   11.6020    7.0450 C.2   506  ASN506      0.2627
    246  OD1        5.6620   12.7650    7.3990 O.2   506  ASN506     -0.2716
    247  ND2        6.5970   10.7500    7.7430 N.am  506  ASN506     -0.0877
@<TRIPOS>BOND
     1    37    36    2
     2    36    35    1
     3    35    38    1
     4    35    34    1
     5    38    39    1
     6   243   242    2
     7    39    40    1
     8    40    41    1
     9    41    42    2
    10   242   241    1
    11    31    30    2
    12    44    42    1
    13    42    43    1
    14    30    29    1
    15   241   244    1
    16   241   240    1
    17   244   245    1
    18    74    75    1
    19    24    23    2
    20    70    69    2
    21    68    71    1
    22    68    69    1
    23    68    67    1
    24    29    28    1
    25    29    32    1
    26    75    78    1
    27    75    76    1
    28    71    72    1
    29    60    59    2
    30    72    73    1
    31   245   246    2
    32   245   247   am
    33    23    22    1
    34    67    59   am
    35    67    73    1
    36    59    58    1
    37    78    79    1
    38    57    58    1
    39    77    76    2
    40    32    33    1
    41    80    79   ar
    42    80    82   ar
    43    17    16    2
    44    22    25    1
    45    22    21    1
    46    58    61    1
    47    79    81   ar
    48    25    26    1
    49    82    84   ar
    50    16    21   am
    51    16    15    1
    52    21    27    1
    53   234   235    2
    54   234   233    1
    55    61    62    1
    56    81    83   ar
    57    26    27    1
    58    19    18    1
    59    84    83   ar
    60    84    85    1
    61    13    12    2
    62    15    18    1
    63    15    14    1
    64   236   233    1
    65   236   237    1
    66    62    63   ar
    67    62    64   ar
    68   232   233    1
    69    63    65   ar
    70    18    20    1
    71    64    66   ar
    72   238   237    1
    73   237   239    1
    74    12    14   am
    75    12    11    1
    76    86    87    1
    77    65    66   ar
    78    89    88    2
    79   200   199    2
    80     1     2    1
    81   130   132   ar
    82   130   129   ar
    83    10    11    1
    84    10     3   am
    85   132   133   ar
    86    88    87    1
    87   199   198    1
    88    87    90    1
    89    90    91    1
    90     2     3    1
    91     2     5    1
    92     3     4    2
    93   129   128    1
    94   129   131   ar
    95   198   201    1
    96   198   197    1
    97   128   125    1
    98   195   194    2
    99   203   202   ar
   100   133   131   ar
   101   133   135   ar
   102   201   202    1
   103    49    50    1
   104    49    46    1
   105    52    50   ar
   106    52    54   ar
   107   131   134   ar
   108   135   137   ar
   109   202   204   ar
   110    50    51   ar
   111    54    55   ar
   112    91    93   am
   113    91    92    2
   114   194   197   am
   115   194   193    1
   116     5     6    1
   117   124   125    1
   118    51    53   ar
   119    55    56    1
   120    55    53   ar
   121   125   126    1
   122    48    47    2
   123   126   127    2
   124   190   191    1
   125   190   187    1
   126    46    47    1
   127    46    45    1
   128     6     7    1
   129   137   136   ar
   130   134   136   ar
   131   144   143    1
   132   193   196    1
   133   193   192    1
   134   189   188    2
   135     9     7   ar
   136   192   188   am
   137   188   187    1
   138     7     8   ar
   139   187   186    1
   140   113   111   am
   141   143   142    1
   142   143   145    1
   143   227   229   ar
   144   227   225   ar
   145   186   174   am
   146   222   223    2
   147   222   221    1
   148   229   230   ar
   149   224   225    1
   150   224   221    1
   151   142   139    1
   152   111   110    1
   153   111   112    2
   154   110   107    1
   155   225   226   ar
   156   123   121   ar
   157   123   122   ar
   158   108   109    2
   159   108   107    1
   160   185   183   ar
   161   185   184   ar
   162   212   210   am
   163   121   119   ar
   164   183   181   ar
   165   221   220    1
   166   230   231    1
   167   230   228   ar
   168   184   182   ar
   169   174   175    2
   170   174   173    1
   171   138   139    1
   172   122   120   ar
   173   107   106    1
   174   226   228   ar
   175   139   140    1
   176   211   210    2
   177   181   180   ar
   178   181   179   ar
   179   166   165    1
   180   210   209    1
   181   182   179   ar
   182   180   178   ar
   183   114   115    1
   184   171   170    2
   185   179   177   ar
   186   119   120   ar
   187   119   118    1
   188   173   172    1
   189   173   176    1
   190   140   141    2
   191   167   165    1
   192   178   177   ar
   193   177   176    1
   194   165   164    2
   195   170   172   am
   196   170   169    1
   197   118   115    1
   198   115   116    1
   199   209   206    1
   200   169   168    1
   201   164   163    1
   202   155   154    1
   203   206   205    1
   204   206   207    1
   205   116   117    2
   206   163   162    1
   207   154   156    1
   208   154   153    2
   209   207   208    2
   210   152   153    1
   211   152   151    1
   212   162   161    1
   213   219   217    1
   214   146   147    1
   215   160   159    2
   216   150   151    1
   217   150   147    1
   218   159   158    1
   219   161   158    1
   220   218   217    1
   221   147   148    1
   222   102   100   ar
   223   102   104   ar
   224   148   149    2
   225   105   104    1
   226   217   214    1
   227   158   157    1
   228   100    99   ar
   229    94    95    1
   230   104   103   ar
   231   213   214    1
   232   214   215    1
   233    97    96    2
   234    99    98    1
   235    99   101   ar
   236   103   101   ar
   237    95    96    1
   238    95    98    1
   239   215   216    2
