@<TRIPOS>MOLECULE
tmp/1jf1A00.pdb
 236 229 0 0 0
SMALL
GASTEIGER

@<TRIPOS>ATOM
      1  N         16.8800   45.7870   57.4250 N.3     5  MET5       -0.1245
      2  CA        18.0740   45.0510   57.7670 C.3     5  MET5        0.1570
      3  C         17.5470   43.8340   58.5120 C.2     5  MET5        0.2261
      4  O         16.7180   43.9570   59.4330 O.2     5  MET5       -0.2867
      5  CB        19.0090   45.8430   58.6660 C.3     5  MET5        0.0387
      6  CG        20.2230   44.9900   59.0590 C.3     5  MET5        0.0595
      7  SD        21.6790   45.8380   59.6630 S.3     5  MET5       -0.1393
      8  CE        21.1520   46.3190   61.3130 C.3     5  MET5        0.0692
      9  N         18.5290   39.8220   60.1930 N.3     7  TYR7       -0.1241
     10  CA        19.4760   38.7650   60.5100 C.3     7  TYR7        0.1605
     11  C         18.6470   37.4890   60.6470 C.2     7  TYR7        0.2264
     12  O         17.5960   37.5080   61.2960 O.2     7  TYR7       -0.2867
     13  CB        20.2160   39.0540   61.8070 C.3     7  TYR7        0.0534
     14  CG        21.3120   40.0670   61.6020 C.ar    7  TYR7       -0.0201
     15  CD1       22.5080   39.6970   60.9780 C.ar    7  TYR7       -0.0009
     16  CD2       21.1690   41.3780   62.0590 C.ar    7  TYR7       -0.0009
     17  CE1       23.5750   40.6240   60.8290 C.ar    7  TYR7        0.0417
     18  CE2       22.2010   42.3060   61.9190 C.ar    7  TYR7        0.0417
     19  CZ        23.4060   41.9260   61.3080 C.ar    7  TYR7        0.1957
     20  OH        24.4480   42.8370   61.1960 O.3     7  TYR7       -0.2866
     21  N         18.9030   33.3050   61.5500 N.3     9  PHE9       -0.1241
     22  CA        19.7540   32.3320   62.2310 C.3     9  PHE9        0.1605
     23  C         19.0510   30.9770   62.1660 C.2     9  PHE9        0.2264
     24  O         17.8650   30.8870   62.4760 O.2     9  PHE9       -0.2867
     25  CB        19.8620   32.7020   63.7110 C.3     9  PHE9        0.0534
     26  CG        20.3330   34.1170   63.9450 C.ar    9  PHE9       -0.0203
     27  CD1       21.6820   34.3880   64.0550 C.ar    9  PHE9       -0.0042
     28  CD2       19.4220   35.1680   64.0140 C.ar    9  PHE9       -0.0042
     29  CE1       22.1490   35.6930   64.2360 C.ar    9  PHE9       -0.0003
     30  CE2       19.8690   36.4950   64.1920 C.ar    9  PHE9       -0.0003
     31  CZ        21.2480   36.7460   64.3040 C.ar    9  PHE9       -0.0000
     32  N         32.6910   35.7040   61.7320 N.3    45  MET45      -0.1245
     33  CA        31.6820   36.3570   60.8980 C.3    45  MET45       0.1570
     34  C         32.4820   36.7950   59.6710 C.2    45  MET45       0.2261
     35  O         33.6030   37.3140   59.8020 O.2    45  MET45      -0.2867
     36  CB        31.1000   37.5800   61.5930 C.3    45  MET45       0.0387
     37  CG        29.9430   38.2130   60.8010 C.3    45  MET45       0.0595
     38  SD        28.5110   37.0830   60.7950 S.3    45  MET45      -0.1393
     39  CE        27.6650   37.7210   62.1640 C.3    45  MET45       0.0692
     40  N         35.1260   45.7340   64.2010 N.3    59  TYR59      -0.1241
     41  CA        33.8010   45.3250   63.7480 C.3    59  TYR59       0.1605
     42  C         33.7610   43.8120   63.6260 C.2    59  TYR59       0.2264
     43  O         32.8910   43.1630   64.1930 O.2    59  TYR59      -0.2867
     44  CB        33.4850   45.9610   62.3970 C.3    59  TYR59       0.0534
     45  CG        32.1680   45.5170   61.8000 C.ar   59  TYR59      -0.0201
     46  CD1       30.9720   46.1470   62.1540 C.ar   59  TYR59      -0.0009
     47  CD2       32.1210   44.4670   60.8780 C.ar   59  TYR59      -0.0009
     48  CE1       29.7400   45.7360   61.5870 C.ar   59  TYR59       0.0417
     49  CE2       30.9080   44.0500   60.3050 C.ar   59  TYR59       0.0417
     50  CZ        29.7190   44.6920   60.6740 C.ar   59  TYR59       0.1957
     51  OH        28.5120   44.2440   60.1670 O.3    59  TYR59      -0.2866
     52  N         31.5270   41.3340   65.8200 N.3    63  GLU63      -0.1245
     53  CA        30.4740   40.5210   65.1850 C.3    63  GLU63       0.1567
     54  C         30.6860   39.0350   65.4130 C.2    63  GLU63       0.2260
     55  O         29.7290   38.2880   65.6080 O.2    63  GLU63      -0.2867
     56  CB        30.3780   40.8200   63.6810 C.3    63  GLU63       0.0388
     57  CG        29.9030   42.2580   63.3940 C.3    63  GLU63       0.1160
     58  CD        28.6520   42.6210   64.1960 C.2    63  GLU63       0.3649
     59  OE1       27.5550   42.0810   63.9050 O.co2  63  GLU63      -0.2457
     60  OE2       28.7700   43.4440   65.1350 O.co2  63  GLU63      -0.2457
     61  N         32.3600   37.7110   68.0070 N.3    65  ARG65      -0.1231
     62  CA        32.0240   37.4370   69.4140 C.3    65  ARG65       0.1694
     63  C         30.4900   37.3160   69.5970 C.2    65  ARG65       0.2592
     64  O         29.9840   36.3990   70.2670 O.2    65  ARG65      -0.2718
     65  CB        32.5270   38.5710   70.3190 C.3    65  ARG65       0.0321
     66  CG        31.9950   38.5150   71.7660 C.3    65  ARG65       0.0489
     67  CD        32.5570   39.6760   72.5990 C.3    65  ARG65       0.2205
     68  NE        32.3000   40.9650   71.9520 N.pl3  65  ARG65      -0.0865
     69  CZ        31.1220   41.5870   71.9480 C.cat  65  ARG65       0.5346
     70  NH1       30.0800   41.0470   72.5710 N.pl3  65  ARG65       0.1354
     71  NH2       30.9820   42.7400   71.2980 N.pl3  65  ARG65       0.1354
     72  N         29.7320   38.2160   68.9880 N.am   66  LYS66      -0.1966
     73  CA        28.2830   38.1510   69.1820 C.3    66  LYS66       0.1728
     74  C         27.6190   36.9770   68.4580 C.2    66  LYS66       0.2616
     75  O         26.6670   36.3930   68.9830 O.2    66  LYS66      -0.2715
     76  CB        27.6270   39.4630   68.7440 C.3    66  LYS66       0.0311
     77  CG        27.8960   40.6390   69.7050 C.3    66  LYS66       0.0038
     78  CD        27.1900   41.9140   69.2460 C.3    66  LYS66       0.0206
     79  CE        27.8520   42.4550   67.9910 C.3    66  LYS66       0.1093
     80  NZ        27.2840   43.7550   67.5490 N.3    66  LYS66      -0.1314
     81  N         28.1160   36.6200   67.2700 N.am   67  VAL67      -0.1977
     82  CA        27.4680   35.5380   66.5600 C.3    67  VAL67       0.1596
     83  C         27.7580   34.2270   67.2640 C.2    67  VAL67       0.2287
     84  O         26.9140   33.3060   67.2890 O.2    67  VAL67      -0.2864
     85  CB        27.8580   35.5240   65.0530 C.3    67  VAL67       0.0276
     86  CG1       29.2020   34.8480   64.8540 C.3    67  VAL67       0.0022
     87  CG2       26.7560   34.8290   64.2610 C.3    67  VAL67       0.0022
     88  N         28.0820   33.9780   70.4770 N.3    69  ALA69      -0.1231
     89  CA        27.2240   33.9960   71.6530 C.3    69  ALA69       0.1694
     90  C         25.8280   33.5330   71.2220 C.2    69  ALA69       0.2592
     91  O         25.1490   32.8050   71.9570 O.2    69  ALA69      -0.2718
     92  CB        27.1510   35.4030   72.2270 C.3    69  ALA69       0.0304
     93  N         25.3910   33.9950   70.0530 N.am   70  HIS70      -0.1976
     94  CA        24.0690   33.6000   69.5330 C.3    70  HIS70       0.1656
     95  C         24.0700   32.0860   69.3590 C.2    70  HIS70       0.2291
     96  O         23.1010   31.3860   69.7120 O.2    70  HIS70      -0.2864
     97  CB        23.8120   34.2420   68.1650 C.3    70  HIS70       0.0771
     98  CG        23.2880   35.6490   68.2160 C.ar   70  HIS70       0.0820
     99  ND1       23.9360   36.6700   68.8800 N.ar   70  HIS70      -0.2267
    100  CD2       22.2320   36.2200   67.5870 C.ar   70  HIS70       0.1154
    101  CE1       23.3060   37.8100   68.6490 C.ar   70  HIS70       0.1986
    102  NE2       22.2690   37.5670   67.8660 N.ar   70  HIS70      -0.2212
    103  N         23.6850   30.2700   72.6310 N.3    73  THR73      -0.1218
    104  CA        22.3230   30.3580   73.1570 C.3    73  THR73       0.1862
    105  C         21.4250   29.3390   72.4410 C.2    73  THR73       0.2287
    106  O         20.6240   28.6340   73.0780 O.2    73  THR73      -0.2866
    107  CB        21.7730   31.8000   72.9570 C.3    73  THR73       0.1770
    108  OG1       22.5370   32.7050   73.7690 O.3    73  THR73      -0.2211
    109  CG2       20.2980   31.8910   73.3250 C.3    73  THR73       0.0375
    110  N         15.6540   31.9100   64.0890 N.3    97  ARG97      -0.1245
    111  CA        15.4040   33.2030   64.6830 C.3    97  ARG97       0.1563
    112  C         15.6040   34.2580   63.6100 C.2    97  ARG97       0.2260
    113  O         16.5130   34.1540   62.7790 O.2    97  ARG97      -0.2867
    114  CB        16.3710   33.4970   65.8420 C.3    97  ARG97       0.0307
    115  CG        16.0250   34.8270   66.5350 C.3    97  ARG97       0.0489
    116  CD        17.1450   35.3490   67.4570 C.3    97  ARG97       0.2205
    117  NE        17.6790   34.3120   68.3280 N.pl3  97  ARG97      -0.0865
    118  CZ        17.4030   34.1760   69.6250 C.cat  97  ARG97       0.5346
    119  NH1       16.5910   35.0220   70.2570 N.pl3  97  ARG97       0.1354
    120  NH2       17.9260   33.1500   70.2940 N.pl3  97  ARG97       0.1354
    121  N         15.4520   38.6920   63.2000 N.3    99  TYR99      -0.1241
    122  CA        15.2000   39.9720   63.8280 C.3    99  TYR99       0.1605
    123  C         15.7480   41.0590   62.9180 C.2    99  TYR99       0.2264
    124  O         16.5920   40.8040   62.0520 O.2    99  TYR99      -0.2867
    125  CB        15.7680   40.0650   65.2640 C.3    99  TYR99       0.0534
    126  CG        17.2740   39.9160   65.4850 C.ar   99  TYR99      -0.0201
    127  CD1       18.1700   40.9320   65.1250 C.ar   99  TYR99      -0.0009
    128  CD2       17.7770   38.7970   66.1440 C.ar   99  TYR99      -0.0009
    129  CE1       19.5360   40.8370   65.4330 C.ar   99  TYR99       0.0417
    130  CE2       19.1410   38.6800   66.4660 C.ar   99  TYR99       0.0417
    131  CZ        20.0180   39.7210   66.1070 C.ar   99  TYR99       0.1957
    132  OH        21.3250   39.6720   66.4750 O.3    99  TYR99      -0.2866
    133  N         11.2990   40.5610   66.0230 N.3   114  HIS114     -0.1241
    134  CA        12.1510   39.5180   66.5670 C.3   114  HIS114      0.1621
    135  C         11.2080   38.3400   66.6950 C.2   114  HIS114      0.2264
    136  O         10.2960   38.3460   67.5390 O.2   114  HIS114     -0.2867
    137  CB        12.7120   39.8980   67.9330 C.3   114  HIS114      0.0745
    138  CG        13.3360   38.7360   68.6400 C.ar  114  HIS114      0.0817
    139  ND1       14.6970   38.5190   68.6760 N.ar  114  HIS114     -0.2268
    140  CD2       12.7670   37.6610   69.2310 C.ar  114  HIS114      0.1154
    141  CE1       14.9410   37.3550   69.2550 C.ar  114  HIS114      0.1986
    142  NE2       13.7850   36.8130   69.5980 N.ar  114  HIS114     -0.2212
    143  N         11.0480   35.3750   79.6600 N.3   147  TRP147     -0.1241
    144  CA        11.5500   36.5770   78.9950 C.3   147  TRP147      0.1605
    145  C         10.9050   37.8330   79.5400 C.2   147  TRP147      0.2264
    146  O         11.5400   38.8810   79.5760 O.2   147  TRP147     -0.2867
    147  CB        11.3790   36.4620   77.4930 C.3   147  TRP147      0.0550
    148  CG        12.3710   35.4890   76.8810 C.ar  147  TRP147      0.0003
    149  CD1       13.3040   34.6960   77.5340 C.ar  147  TRP147      0.0946
    150  CD2       12.5160   35.2240   75.4940 C.ar  147  TRP147      0.0152
    151  NE1       14.0270   33.9490   76.5940 N.ar  147  TRP147     -0.2442
    152  CE2       13.5530   34.2640   75.3430 C.ar  147  TRP147      0.0810
    153  CE3       11.8690   35.7110   74.3500 C.ar  147  TRP147      0.0012
    154  CZ2       13.9540   33.7870   74.0840 C.ar  147  TRP147      0.0191
    155  CZ3       12.2800   35.2360   73.0840 C.ar  147  TRP147      0.0001
    156  CH2       13.3060   34.2890   72.9710 C.ar  147  TRP147      0.0015
    157  N         13.4750   41.0160   78.5850 N.3   152  VAL152     -0.1245
    158  CA        14.0500   40.8260   77.2510 C.3   152  VAL152      0.1561
    159  C         13.5000   41.8380   76.2450 C.2   152  VAL152      0.2260
    160  O         14.2530   42.4360   75.4700 O.2   152  VAL152     -0.2867
    161  CB        13.7600   39.3950   76.7380 C.3   152  VAL152      0.0252
    162  CG1       14.1060   39.2890   75.1950 C.3   152  VAL152      0.0019
    163  CG2       14.5530   38.3650   77.5890 C.3   152  VAL152      0.0019
    164  N         15.1270   45.2240   76.1080 N.3   155  GLN155     -0.1231
    165  CA        16.4680   45.1350   75.5490 C.3   155  GLN155      0.1698
    166  C         16.4370   45.0510   74.0240 C.2   155  GLN155      0.2592
    167  O         17.2200   45.7420   73.3390 O.2   155  GLN155     -0.2718
    168  CB        17.1990   43.9220   76.1200 C.3   155  GLN155      0.0381
    169  CG        17.4280   44.0740   77.6020 C.3   155  GLN155      0.0905
    170  CD        18.3550   43.0350   78.1990 C.2   155  GLN155      0.2608
    171  OE1       18.7220   43.1390   79.3700 O.2   155  GLN155     -0.2717
    172  NE2       18.7430   42.0320   77.4070 N.am  155  GLN155     -0.0878
    173  N         15.5560   44.1990   73.4930 N.am  156  LEU156     -0.1980
    174  CA        15.4380   44.0900   72.0450 C.3   156  LEU156      0.1596
    175  C         14.9100   45.3920   71.5020 C.2   156  LEU156      0.2287
    176  O         15.3550   45.8550   70.4490 O.2   156  LEU156     -0.2864
    177  CB        14.4980   42.9630   71.6310 C.3   156  LEU156      0.0297
    178  CG        15.0810   41.5790   71.9460 C.3   156  LEU156      0.0022
    179  CD1       14.0160   40.5140   71.7170 C.3   156  LEU156      0.0001
    180  CD2       16.3000   41.3170   71.0730 C.3   156  LEU156      0.0001
    181  N         15.4180   48.4090   72.5490 N.3   158  ALA158     -0.1231
    182  CA        16.4680   49.4150   72.5030 C.3   158  ALA158      0.1694
    183  C         17.3440   49.1550   71.2620 C.2   158  ALA158      0.2592
    184  O         17.7720   50.0920   70.5650 O.2   158  ALA158     -0.2718
    185  CB        17.3090   49.3540   73.7540 C.3   158  ALA158      0.0304
    186  N         17.6050   47.8760   70.9960 N.am  159  TYR159     -0.1976
    187  CA        18.4250   47.5120   69.8530 C.3   159  TYR159      0.1639
    188  C         17.6760   47.8020   68.5750 C.2   159  TYR159      0.2290
    189  O         18.2180   48.4540   67.6840 O.2   159  TYR159     -0.2864
    190  CB        18.7990   46.0180   69.8910 C.3   159  TYR159      0.0560
    191  CG        19.3440   45.5110   68.5660 C.ar  159  TYR159     -0.0198
    192  CD1       20.6740   45.7520   68.1820 C.ar  159  TYR159     -0.0009
    193  CD2       18.5150   44.8250   67.6810 C.ar  159  TYR159     -0.0009
    194  CE1       21.1620   45.3110   66.9390 C.ar  159  TYR159      0.0417
    195  CE2       18.9880   44.3770   66.4390 C.ar  159  TYR159      0.0417
    196  CZ        20.3060   44.6200   66.0670 C.ar  159  TYR159      0.1957
    197  OH        20.7430   44.1880   64.8280 O.3   159  TYR159     -0.2866
    198  N         20.2890   50.9920   67.6860 N.3   163  THR163     -0.1203
    199  CA        21.3960   50.3410   67.0310 C.3   163  THR163      0.1994
    200  C         21.0630   49.8130   65.6500 C.2   163  THR163      0.2618
    201  O         21.7760   50.1040   64.6890 O.2   163  THR163     -0.2717
    202  CB        21.8550   49.1450   67.8570 C.3   163  THR163      0.1784
    203  OG1       22.1180   49.5770   69.1940 O.3   163  THR163     -0.2211
    204  CG2       23.1240   48.5310   67.2630 C.3   163  THR163      0.0376
    205  N         19.9990   49.0100   65.5660 N.am  164  CYS164     -0.1969
    206  CA        19.6350   48.3950   64.2810 C.3   164  CYS164      0.1712
    207  C         19.4670   49.4570   63.1960 C.2   164  CYS164      0.2296
    208  O         20.0510   49.3800   62.1130 O.2   164  CYS164     -0.2864
    209  CB        18.3570   47.5580   64.4500 C.3   164  CYS164      0.0983
    210  SG        17.8780   46.6290   62.9510 S.3   164  CYS164     -0.0798
    211  N         22.8700   51.3530   62.3300 N.3   167  TRP167     -0.1241
    212  CA        23.7430   50.6140   61.4370 C.3   167  TRP167      0.1605
    213  C         23.1450   50.4340   60.0420 C.2   167  TRP167      0.2264
    214  O         23.8800   50.4250   59.0420 O.2   167  TRP167     -0.2867
    215  CB        24.1470   49.2750   62.0670 C.3   167  TRP167      0.0550
    216  CG        25.2000   49.5090   63.1480 C.ar  167  TRP167      0.0003
    217  CD1       24.9780   49.9410   64.4330 C.ar  167  TRP167      0.0946
    218  CD2       26.6220   49.4300   62.9950 C.ar  167  TRP167      0.0152
    219  NE1       26.1770   50.1420   65.0790 N.ar  167  TRP167     -0.2442
    220  CE2       27.2000   49.8330   64.2210 C.ar  167  TRP167      0.0810
    221  CE3       27.4690   49.0620   61.9350 C.ar  167  TRP167      0.0012
    222  CZ2       28.5910   49.8780   64.4180 C.ar  167  TRP167      0.0191
    223  CZ3       28.8510   49.1110   62.1330 C.ar  167  TRP167      0.0001
    224  CH2       29.3940   49.5160   63.3630 C.ar  167  TRP167      0.0015
    225  N         25.1630   51.3170   56.6410 N.3   171  TYR171     -0.1241
    226  CA        25.3450   50.3920   55.5380 C.3   171  TYR171      0.1605
    227  C         24.7800   50.9750   54.2480 C.2   171  TYR171      0.2264
    228  O         25.3990   50.8450   53.1780 O.2   171  TYR171     -0.2867
    229  CB        24.6530   49.0430   55.8280 C.3   171  TYR171      0.0534
    230  CG        25.1920   48.3070   57.0490 C.ar  171  TYR171     -0.0201
    231  CD1       26.5380   48.3670   57.3890 C.ar  171  TYR171     -0.0009
    232  CD2       24.3500   47.5090   57.8300 C.ar  171  TYR171     -0.0009
    233  CE1       27.0540   47.6500   58.4830 C.ar  171  TYR171      0.0417
    234  CE2       24.8430   46.7800   58.9220 C.ar  171  TYR171      0.0417
    235  CZ        26.1980   46.8590   59.2420 C.ar  171  TYR171      0.1957
    236  OH        26.6990   46.1590   60.3070 O.3   171  TYR171     -0.2866
@<TRIPOS>BOND
     1   228   227    2
     2   227   226    1
     3   226   229    1
     4   226   225    1
     5   229   230    1
     6   230   231   ar
     7   230   232   ar
     8   231   233   ar
     9     1     2    1
    10     2     3    1
    11     2     5    1
    12   232   234   ar
    13   233   235   ar
    14     3     4    2
    15     5     6    1
    16   234   235   ar
    17   214   213    2
    18     6     7    1
    19   235   236    1
    20     7     8    1
    21    34    35    2
    22    34    33    1
    23   213   212    1
    24    51    50    1
    25     9    10    1
    26    49    50   ar
    27    49    47   ar
    28    10    11    1
    29    10    13    1
    30    11    12    2
    31    50    48   ar
    32    38    37    1
    33    38    39    1
    34    37    36    1
    35    17    15   ar
    36    17    19   ar
    37    47    45   ar
    38    33    36    1
    39    33    32    1
    40    15    14   ar
    41    20    19    1
    42    19    18   ar
    43   212   215    1
    44   212   211    1
    45    21    22    1
    46    48    46   ar
    47    14    13    1
    48    14    16   ar
    49    45    46   ar
    50    45    44    1
    51    18    16   ar
    52   221   223   ar
    53   221   218   ar
    54   124   123    2
    55   215   216    1
    56   208   207    2
    57   223   224   ar
    58    23    22    1
    59    23    24    2
    60    22    25    1
    61    44    41    1
    62   113   112    2
    63   123   122    1
    64   210   209    1
    65   218   216   ar
    66   218   220   ar
    67   216   217   ar
    68   207   206    1
    69   121   122    1
    70   224   222   ar
    71    57    56    1
    72    57    58    1
    73   112   111    1
    74    42    41    1
    75    42    43    2
    76    56    53    1
    77    25    26    1
    78    41    40    1
    79   122   125    1
    80    59    58   ar
    81    26    28   ar
    82    26    27   ar
    83    28    30   ar
    84    27    29   ar
    85   110   111    1
    86    30    31   ar
    87    58    60   ar
    88   220   222   ar
    89   220   219   ar
    90    29    31   ar
    91    87    85    1
    92   206   209    1
    93   206   205    1
    94   217   219   ar
    95   111   114    1
    96   201   200    2
    97   197   196    1
    98    86    85    1
    99    85    82    1
   100   127   129   ar
   101   127   126   ar
   102    53    54    1
   103    53    52    1
   104   125   126    1
   105    54    55    2
   106   129   131   ar
   107   126   128   ar
   108   205   200   am
   109   200   199    1
   110   114   115    1
   111   133   134    1
   112   196   195   ar
   113   196   194   ar
   114   131   130   ar
   115   131   132    1
   116   128   130   ar
   117   195   193   ar
   118   115   116    1
   119    82    83    1
   120    82    81    1
   121   134   135    1
   122   134   137    1
   123   135   136    2
   124   194   192   ar
   125   199   198    1
   126   199   202    1
   127   204   202    1
   128    83    84    2
   129    81    74   am
   130   116   117    1
   131    80    79    1
   132   100   102   ar
   133   100    98   ar
   134   193   191   ar
   135   189   188    2
   136   202   203    1
   137   102   101   ar
   138   137   138    1
   139    79    78    1
   140    61    62    1
   141    97    98    1
   142    97    94    1
   143   192   191   ar
   144    98    99   ar
   145   117   118    2
   146    74    75    2
   147    74    73    1
   148   191   190    1
   149   188   187    1
   150   138   139   ar
   151   138   140   ar
   152   101    99   ar
   153   139   141   ar
   154    76    73    1
   155    76    77    1
   156    72    73    1
   157    72    63   am
   158   140   142   ar
   159    78    77    1
   160   141   142   ar
   161    95    94    1
   162    95    96    2
   163    62    63    1
   164    62    65    1
   165    94    93    1
   166    63    64    2
   167   118   119    1
   168   118   120    1
   169   187   190    1
   170   187   186    1
   171    93    90   am
   172    65    66    1
   173   176   175    2
   174    88    89    1
   175   184   183    2
   176   186   183   am
   177   180   178    1
   178    90    89    1
   179    90    91    2
   180   183   182    1
   181    71    69    1
   182   175   174    1
   183   177   178    1
   184   177   174    1
   185    89    92    1
   186   179   178    1
   187    66    67    1
   188    69    68    2
   189    69    70    1
   190    68    67    1
   191   174   173    1
   192   105   106    2
   193   105   104    1
   194   182   181    1
   195   182   185    1
   196   103   104    1
   197   107   104    1
   198   107   109    1
   199   107   108    1
   200   156   155   ar
   201   156   154   ar
   202   155   153   ar
   203   167   166    2
   204   173   166   am
   205   166   165    1
   206   154   152   ar
   207   153   150   ar
   208   162   161    1
   209   152   150   ar
   210   152   151   ar
   211   160   159    2
   212   150   148   ar
   213   165   164    1
   214   165   168    1
   215   168   169    1
   216   159   158    1
   217   151   149   ar
   218   161   158    1
   219   161   163    1
   220   148   147    1
   221   148   149   ar
   222   158   157    1
   223   172   170   am
   224   147   144    1
   225   169   170    1
   226   170   171    2
   227   144   145    1
   228   144   143    1
   229   145   146    2
