@<TRIPOS>MOLECULE
tmp/1jf4A00.pdb
 225 216 0 0 0
SMALL
GASTEIGER

@<TRIPOS>ATOM
      1  N        -31.2970   -5.0370   27.1500 N.3    31  PHE31      -0.1241
      2  CA       -31.4410   -4.0670   26.0900 C.3    31  PHE31       0.1605
      3  C        -32.6850   -3.2060   26.2380 C.2    31  PHE31       0.2264
      4  O        -32.6320   -2.0430   25.8310 O.2    31  PHE31      -0.2867
      5  CB       -31.4320   -4.7880   24.7350 C.3    31  PHE31       0.0534
      6  CG       -30.0290   -5.2690   24.4190 C.ar   31  PHE31      -0.0203
      7  CD1      -29.1330   -4.4060   23.7900 C.ar   31  PHE31      -0.0042
      8  CD2      -29.6130   -6.5470   24.8110 C.ar   31  PHE31      -0.0042
      9  CE1      -27.8150   -4.8260   23.5610 C.ar   31  PHE31      -0.0003
     10  CE2      -28.2960   -6.9570   24.5800 C.ar   31  PHE31      -0.0003
     11  CZ       -27.3930   -6.0970   23.9560 C.ar   31  PHE31      -0.0000
     12  N        -31.6130   -0.6080   28.8980 N.3    34  PHE34      -0.1241
     13  CA       -30.5700    0.2220   28.3170 C.3    34  PHE34       0.1605
     14  C        -31.1580    1.2480   27.3520 C.2    34  PHE34       0.2264
     15  O        -30.8400    2.4350   27.4540 O.2    34  PHE34      -0.2867
     16  CB       -29.5460   -0.6390   27.5670 C.3    34  PHE34       0.0534
     17  CG       -28.3630    0.1520   27.0280 C.ar   34  PHE34      -0.0203
     18  CD1      -27.6200    0.9910   27.8750 C.ar   34  PHE34      -0.0042
     19  CD2      -28.0160    0.0400   25.6810 C.ar   34  PHE34      -0.0042
     20  CE1      -26.5380    1.7140   27.3690 C.ar   34  PHE34      -0.0003
     21  CE2      -26.9290    0.7690   25.1850 C.ar   34  PHE34      -0.0003
     22  CZ       -26.1910    1.6040   26.0250 C.ar   34  PHE34      -0.0000
     23  N        -29.4560    6.0170   22.0700 N.3    41  MET41      -0.1245
     24  CA       -28.8420    4.7900   21.5850 C.3    41  MET41       0.1570
     25  C        -29.7180    3.9820   20.6390 C.2    41  MET41       0.2261
     26  O        -29.1750    3.1480   19.9160 O.2    41  MET41      -0.2867
     27  CB       -28.4500    3.9260   22.7650 C.3    41  MET41       0.0387
     28  CG       -27.2610    4.4910   23.5540 C.3    41  MET41       0.0595
     29  SD       -25.7330    4.3960   22.6000 S.3    41  MET41      -0.1393
     30  CE       -25.4700    6.0850   22.1670 C.3    41  MET41       0.0692
     31  N        -28.3560    3.9340   17.0980 N.3    44  VAL44      -0.1231
     32  CA       -27.1090    3.1940   16.9290 C.3    44  VAL44       0.1692
     33  C        -27.3930    1.7250   16.6140 C.2    44  VAL44       0.2592
     34  O        -26.7040    1.0970   15.8120 O.2    44  VAL44      -0.2718
     35  CB       -26.2560    3.3490   18.2210 C.3    44  VAL44       0.0266
     36  CG1      -24.9250    2.6100   18.1070 C.3    44  VAL44       0.0020
     37  CG2      -25.9210    4.8270   18.4120 C.3    44  VAL44       0.0020
     38  N        -28.4430    1.1800   17.2330 N.am   45  PHE45      -0.1976
     39  CA       -28.9020   -0.1730   16.9710 C.3    45  PHE45       0.1639
     40  C        -29.7760   -0.3180   15.7250 C.2    45  PHE45       0.2290
     41  O        -29.9490   -1.4240   15.2080 O.2    45  PHE45      -0.2864
     42  CB       -29.7050   -0.6770   18.1310 C.3    45  PHE45       0.0560
     43  CG       -28.9070   -0.9620   19.3800 C.ar   45  PHE45      -0.0200
     44  CD1      -28.3910   -2.2390   19.5790 C.ar   45  PHE45      -0.0042
     45  CD2      -28.7190    0.0390   20.3320 C.ar   45  PHE45      -0.0042
     46  CE1      -27.6830   -2.5130   20.7520 C.ar   45  PHE45      -0.0003
     47  CE2      -28.0110   -0.2430   21.5000 C.ar   45  PHE45      -0.0003
     48  CZ       -27.4930   -1.5160   21.7130 C.ar   45  PHE45      -0.0000
     49  N        -32.9910    0.5820   15.8670 N.3    47  PHE47      -0.1241
     50  CA       -34.3050    0.3070   16.4260 C.3    47  PHE47       0.1605
     51  C        -35.1390    1.5720   16.5440 C.2    47  PHE47       0.2264
     52  O        -34.5960    2.6710   16.6470 O.2    47  PHE47      -0.2867
     53  CB       -34.1950   -0.3190   17.8150 C.3    47  PHE47       0.0534
     54  CG       -33.4940   -1.6740   17.8670 C.ar   47  PHE47      -0.0203
     55  CD1      -33.5170   -2.5590   16.7840 C.ar   47  PHE47      -0.0042
     56  CD2      -32.8060   -2.0240   19.0260 C.ar   47  PHE47      -0.0042
     57  CE1      -32.8500   -3.7830   16.8590 C.ar   47  PHE47      -0.0003
     58  CE2      -32.1410   -3.2480   19.1030 C.ar   47  PHE47      -0.0003
     59  CZ       -32.1630   -4.1230   18.0200 C.ar   47  PHE47      -0.0000
     60  N        -32.4390   -9.3660   19.5010 N.3    58  LEU58      -0.1245
     61  CA       -31.0340   -9.0960   19.7130 C.3    58  LEU58       0.1561
     62  C        -30.6040   -9.5790   21.0920 C.2    58  LEU58       0.2260
     63  O        -29.5430  -10.1820   21.1860 O.2    58  LEU58      -0.2867
     64  CB       -30.7410   -7.6040   19.5960 C.3    58  LEU58       0.0270
     65  CG       -29.2990   -7.1750   19.9150 C.3    58  LEU58       0.0019
     66  CD1      -28.3500   -7.8380   18.9600 C.3    58  LEU58       0.0001
     67  CD2      -29.1650   -5.6850   19.8100 C.3    58  LEU58       0.0001
     68  N        -29.8580  -13.2890   21.0150 N.3    61  LYS61      -0.1231
     69  CA       -28.5960  -13.5520   20.3160 C.3    61  LYS61       0.1693
     70  C        -27.3200  -13.1520   21.0510 C.2    61  LYS61       0.2591
     71  O        -26.2950  -13.8370   20.9660 O.2    61  LYS61      -0.2718
     72  CB       -28.5960  -12.8520   18.9620 C.3    61  LYS61       0.0285
     73  CG       -29.6030  -13.5320   18.0580 C.3    61  LYS61       0.0035
     74  CD       -29.7210  -12.7150   16.8030 C.3    61  LYS61       0.0206
     75  CE       -30.7620  -13.3250   15.8900 C.3    61  LYS61       0.1093
     76  NZ       -30.9140  -12.4760   14.7250 N.3    61  LYS61      -0.1314
     77  N        -27.3630  -12.0360   21.7840 N.am   62  VAL62      -0.1980
     78  CA       -26.2190  -11.5730   22.5580 C.3    62  VAL62       0.1595
     79  C        -25.9710  -12.5220   23.7080 C.2    62  VAL62       0.2287
     80  O        -24.8370  -12.9470   23.8970 O.2    62  VAL62      -0.2864
     81  CB       -26.4950  -10.1430   23.0700 C.3    62  VAL62       0.0276
     82  CG1      -25.4940   -9.6980   24.1320 C.3    62  VAL62       0.0022
     83  CG2      -26.4140   -9.2160   21.8560 C.3    62  VAL62       0.0022
     84  N        -24.5270  -15.9330   22.5930 N.3    65  GLN65      -0.1231
     85  CA       -23.1160  -15.8010   22.2620 C.3    65  GLN65       0.1698
     86  C        -22.2490  -15.7030   23.5160 C.2    65  GLN65       0.2592
     87  O        -21.1050  -16.1670   23.5120 O.2    65  GLN65      -0.2718
     88  CB       -22.9240  -14.5570   21.3990 C.3    65  GLN65       0.0381
     89  CG       -21.5060  -14.3030   20.8930 C.3    65  GLN65       0.0905
     90  CD       -20.9460  -15.4160   20.0180 C.2    65  GLN65       0.2608
     91  OE1      -19.8690  -15.9590   20.2650 O.2    65  GLN65      -0.2717
     92  NE2      -21.6550  -15.7800   18.9570 N.am   65  GLN65      -0.0878
     93  N        -22.7580  -15.0670   24.5840 N.am   66  ILE66      -0.1980
     94  CA       -22.0440  -15.0080   25.8560 C.3    66  ILE66       0.1595
     95  C        -21.9450  -16.4210   26.4110 C.2    66  ILE66       0.2287
     96  O        -20.8980  -16.7660   26.9450 O.2    66  ILE66      -0.2864
     97  CB       -22.7900  -14.0480   26.8210 C.3    66  ILE66       0.0276
     98  CG1      -22.4440  -12.6230   26.3920 C.3    66  ILE66       0.0022
     99  CG2      -22.3820  -14.2480   28.2720 C.3    66  ILE66       0.0022
    100  CD1      -23.1210  -11.4860   27.1720 C.3    66  ILE66       0.0001
    101  N        -14.8220  -13.8410   19.4080 N.3    83  MET83      -0.1245
    102  CA       -15.4350  -12.5520   19.6720 C.3    83  MET83       0.1570
    103  C        -14.9390  -11.4540   18.7350 C.2    83  MET83       0.2261
    104  O        -15.6960  -10.5320   18.4280 O.2    83  MET83      -0.2867
    105  CB       -15.1870  -12.1520   21.1180 C.3    83  MET83       0.0387
    106  CG       -16.0230  -12.9770   22.0880 C.3    83  MET83       0.0595
    107  SD       -17.8010  -13.0540   21.7120 S.3    83  MET83      -0.1393
    108  CE       -18.2460  -11.3540   21.6470 C.3    83  MET83       0.0692
    109  N        -17.1160  -11.7460   15.6900 N.3    86  VAL86      -0.1245
    110  CA       -18.3970  -11.0970   15.9580 C.3    86  VAL86       0.1561
    111  C        -18.2180   -9.5880   15.7740 C.2    86  VAL86       0.2260
    112  O        -19.0560   -8.9610   15.1300 O.2    86  VAL86      -0.2867
    113  CB       -18.8710  -11.4210   17.4020 C.3    86  VAL86       0.0252
    114  CG1      -20.1370  -10.6590   17.7500 C.3    86  VAL86       0.0019
    115  CG2      -19.2000  -12.8960   17.5040 C.3    86  VAL86       0.0019
    116  N        -18.1000   -8.2570   12.1900 N.3    89  ARG89      -0.1231
    117  CA       -19.4480   -8.1350   11.6380 C.3    89  ARG89       0.1694
    118  C        -20.1750   -6.8710   12.0890 C.2    89  ARG89       0.2592
    119  O        -21.0320   -6.3840   11.3570 O.2    89  ARG89      -0.2718
    120  CB       -20.2780   -9.3630   12.0200 C.3    89  ARG89       0.0321
    121  CG       -19.6880  -10.6340   11.4100 C.3    89  ARG89       0.0489
    122  CD       -20.6740  -11.7990   11.4420 C.3    89  ARG89       0.2205
    123  NE       -20.9780  -12.2870   12.7740 N.pl3  89  ARG89      -0.0865
    124  CZ       -20.3800  -13.3510   13.3090 C.cat  89  ARG89       0.5346
    125  NH1      -19.4500  -14.0370   12.6490 N.pl3  89  ARG89       0.1354
    126  NH2      -20.7460  -13.7560   14.5160 N.pl3  89  ARG89       0.1354
    127  N        -19.8600   -6.3190   13.2760 N.am   90  HIS90      -0.1976
    128  CA       -20.4780   -5.0890   13.7650 C.3    90  HIS90       0.1656
    129  C        -20.0980   -3.8390   12.9960 C.2    90  HIS90       0.2291
    130  O        -20.7220   -2.8020   13.2120 O.2    90  HIS90      -0.2864
    131  CB       -20.1560   -4.8270   15.2650 C.3    90  HIS90       0.0771
    132  CG       -20.9370   -5.8000   16.1370 C.ar   90  HIS90       0.0820
    133  ND1      -20.8340   -7.1200   16.1030 N.ar   90  HIS90      -0.2267
    134  CD2      -21.9230   -5.4690   17.0180 C.ar   90  HIS90       0.1154
    135  CE1      -21.7470   -7.5830   16.9330 C.ar   90  HIS90       0.1986
    136  NE2      -22.4050   -6.5950   17.4850 N.ar   90  HIS90      -0.2212
    137  N        -23.3210   -3.2480   11.1330 N.3    93  TYR93      -0.1227
    138  CA       -24.5720   -3.3000   11.8870 C.3    93  TYR93       0.1736
    139  C        -25.0680   -1.9460   12.3370 C.2    93  TYR93       0.2596
    140  O        -24.2680   -1.0240   12.4850 O.2    93  TYR93      -0.2718
    141  CB       -24.4100   -4.1770   13.1280 C.3    93  TYR93       0.0548
    142  CG       -24.2490   -5.6610   12.8450 C.ar   93  TYR93      -0.0200
    143  CD1      -24.5380   -6.1870   11.5770 C.ar   93  TYR93      -0.0009
    144  CD2      -23.8370   -6.5110   13.8740 C.ar   93  TYR93      -0.0009
    145  CE1      -24.4220   -7.5530   11.3360 C.ar   93  TYR93       0.0417
    146  CE2      -23.7170   -7.8870   13.6370 C.ar   93  TYR93       0.0417
    147  CZ       -24.0140   -8.3930   12.3670 C.ar   93  TYR93       0.1957
    148  OH       -23.9060   -9.7430   12.1080 O.3    93  TYR93      -0.2866
    149  N        -26.3910   -1.8650   12.5740 N.am   94  GLY94      -0.1957
    150  CA       -27.1060   -0.6750   13.0400 C.3    94  GLY94       0.1869
    151  C        -26.8150    0.5510   12.1870 C.2    94  GLY94       0.2309
    152  O        -26.9720    0.5240   10.9680 O.2    94  GLY94      -0.2863
    153  N        -20.8470    2.1560   15.4010 N.3    98  ILE98      -0.1245
    154  CA       -20.8010    1.6340   16.7590 C.3    98  ILE98       0.1561
    155  C        -19.4040    1.9430   17.2990 C.2    98  ILE98       0.2260
    156  O        -18.3660    1.6490   16.6940 O.2    98  ILE98      -0.2867
    157  CB       -21.0760    0.1080   16.7450 C.3    98  ILE98       0.0252
    158  CG1      -22.5040   -0.1250   16.2440 C.3    98  ILE98       0.0019
    159  CG2      -20.8930   -0.4930   18.1500 C.3    98  ILE98       0.0019
    160  CD1      -22.8390   -1.5940   15.9340 C.3    98  ILE98       0.0001
    161  N        -19.7170    2.8990   23.9390 N.3   102  TYR102     -0.1227
    162  CA       -21.0610    2.3980   24.1810 C.3   102  TYR102      0.1736
    163  C        -21.1360    1.0960   24.9640 C.2   102  TYR102      0.2595
    164  O        -22.1550    0.7910   25.5900 O.2   102  TYR102     -0.2718
    165  CB       -21.7750    2.2010   22.8470 C.3   102  TYR102      0.0548
    166  CG       -21.8830    3.4410   21.9740 C.ar  102  TYR102     -0.0200
    167  CD1      -21.8150    4.7410   22.5140 C.ar  102  TYR102     -0.0009
    168  CD2      -22.0780    3.2580   20.6040 C.ar  102  TYR102     -0.0009
    169  CE1      -21.9440    5.8520   21.6800 C.ar  102  TYR102      0.0417
    170  CE2      -22.2080    4.3640   19.7720 C.ar  102  TYR102      0.0417
    171  CZ       -22.1440    5.6480   20.3130 C.ar  102  TYR102      0.1957
    172  OH       -22.3090    6.7260   19.4730 O.3   102  TYR102     -0.2866
    173  N        -20.0550    0.3100   24.9310 N.am  103  PHE103     -0.1976
    174  CA       -20.0090   -0.9840   25.6000 C.3   103  PHE103      0.1639
    175  C        -19.9480   -0.9490   27.1110 C.2   103  PHE103      0.2290
    176  O        -20.4620   -1.8460   27.7650 O.2   103  PHE103     -0.2864
    177  CB       -18.8200   -1.7790   25.0920 C.3   103  PHE103      0.0560
    178  CG       -19.0570   -2.2510   23.6760 C.ar  103  PHE103     -0.0200
    179  CD1      -19.6270   -3.5050   23.4600 C.ar  103  PHE103     -0.0042
    180  CD2      -18.7130   -1.4260   22.6070 C.ar  103  PHE103     -0.0042
    181  CE1      -19.8520   -3.9300   22.1580 C.ar  103  PHE103     -0.0003
    182  CE2      -18.9450   -1.8670   21.3080 C.ar  103  PHE103     -0.0003
    183  CZ       -19.5130   -3.1170   21.0820 C.ar  103  PHE103     -0.0000
    184  N        -23.5000   -0.5180   28.6330 N.3   106  LEU106     -0.1245
    185  CA       -24.2560   -1.7200   28.3050 C.3   106  LEU106      0.1561
    186  C        -23.9220   -2.8240   29.3010 C.2   106  LEU106      0.2260
    187  O        -24.7890   -3.6020   29.6860 O.2   106  LEU106     -0.2867
    188  CB       -23.8980   -2.1790   26.9090 C.3   106  LEU106      0.0270
    189  CG       -24.8820   -2.9320   25.9970 C.3   106  LEU106      0.0019
    190  CD1      -24.1160   -4.1110   25.4270 C.3   106  LEU106      0.0001
    191  CD2      -26.1460   -3.3950   26.7040 C.3   106  LEU106      0.0001
    192  N        -17.0250   -9.6580   31.1940 N.3   134  TYR134     -0.1241
    193  CA       -17.6140   -8.7280   30.2400 C.3   134  TYR134      0.1605
    194  C        -16.5010   -7.8400   29.6940 C.2   134  TYR134      0.2264
    195  O        -16.4860   -7.6360   28.4830 O.2   134  TYR134     -0.2867
    196  CB       -18.7160   -7.8560   30.8930 C.3   134  TYR134      0.0534
    197  CG       -19.3620   -6.9140   29.8730 C.ar  134  TYR134     -0.0201
    198  CD1      -20.2230   -7.4230   28.8870 C.ar  134  TYR134     -0.0009
    199  CD2      -19.0180   -5.5570   29.8580 C.ar  134  TYR134     -0.0009
    200  CE1      -20.7250   -6.5840   27.8850 C.ar  134  TYR134      0.0417
    201  CE2      -19.5120   -4.7190   28.8550 C.ar  134  TYR134      0.0417
    202  CZ       -20.3660   -5.2360   27.8720 C.ar  134  TYR134      0.1957
    203  OH       -20.8500   -4.4070   26.8760 O.3   134  TYR134     -0.2866
    204  N        -14.6930  -10.0340   26.9610 N.3   137  ILE137     -0.1231
    205  CA       -15.5780  -10.3960   25.8520 C.3   137  ILE137      0.1692
    206  C        -15.8760   -9.1790   24.9850 C.2   137  ILE137      0.2592
    207  O        -15.7280   -9.2530   23.7620 O.2   137  ILE137     -0.2718
    208  CB       -16.8710  -11.0440   26.4580 C.3   137  ILE137      0.0266
    209  CG1      -16.4990  -12.4080   27.0480 C.3   137  ILE137      0.0019
    210  CG2      -17.9560  -11.2610   25.3960 C.3   137  ILE137      0.0020
    211  CD1      -17.6080  -13.0250   27.9300 C.3   137  ILE137      0.0001
    212  N        -16.2590   -8.0500   25.6080 N.am  138  SER138     -0.1952
    213  CA       -16.4940   -6.8270   24.8590 C.3   138  SER138      0.1924
    214  C        -15.2030   -6.2670   24.2790 C.2   138  SER138      0.2314
    215  O        -15.2170   -5.8040   23.1460 O.2   138  SER138     -0.2863
    216  CB       -17.1530   -5.7790   25.7520 C.3   138  SER138      0.2116
    217  OG       -16.4050   -5.4390   26.9120 O.3   138  SER138     -0.2180
    218  N        -14.4940   -8.0780   21.1130 N.3   141  LEU141     -0.1245
    219  CA       -15.4200   -7.6220   20.0820 C.3   141  LEU141      0.1561
    220  C        -14.9740   -6.2540   19.5740 C.2   141  LEU141      0.2260
    221  O        -14.9190   -6.0650   18.3640 O.2   141  LEU141     -0.2867
    222  CB       -16.8470   -7.5270   20.6550 C.3   141  LEU141      0.0270
    223  CG       -18.0620   -7.4000   19.7230 C.3   141  LEU141      0.0019
    224  CD1      -19.2960   -7.7200   20.5060 C.3   141  LEU141      0.0001
    225  CD2      -18.2220   -5.9970   19.1760 C.3   141  LEU141      0.0001
@<TRIPOS>BOND
     1   152   151    2
     2   137   138    1
     3   145   143   ar
     4   145   147   ar
     5   119   118    2
     6   121   122    1
     7   121   120    1
     8   122   123    1
     9   143   142   ar
    10   117   120    1
    11   117   118    1
    12   117   116    1
    13   138   139    1
    14   138   141    1
    15   118   127   am
    16   148   147    1
    17   151   150    1
    18   139   140    2
    19   139   149   am
    20   147   146   ar
    21   149   150    1
    22   125   124    1
    23   123   124    2
    24   142   141    1
    25   142   144   ar
    26   129   130    2
    27   129   128    1
    28   127   128    1
    29   124   126    1
    30   146   144   ar
    31   128   131    1
    32    76    75    1
    33   112   111    2
    34    41    40    2
    35   131   132    1
    36   153   154    1
    37   109   110    1
    38    40    39    1
    39   111   110    1
    40    34    33    2
    41    49    50    1
    42    75    74    1
    43   160   158    1
    44   110   113    1
    45   133   132   ar
    46   133   135   ar
    47   132   134   ar
    48   158   157    1
    49    50    51    1
    50    50    53    1
    51    51    52    2
    52    33    32    1
    53    33    38   am
    54   156   155    2
    55   157   154    1
    56   157   159    1
    57   154   155    1
    58    55    57   ar
    59    55    54   ar
    60    74    73    1
    61    57    59   ar
    62    32    31    1
    63    32    35    1
    64   135   136   ar
    65    39    38    1
    66    39    42    1
    67   134   136   ar
    68   113   115    1
    69   113   114    1
    70    53    54    1
    71    54    56   ar
    72    59    58   ar
    73    73    72    1
    74    36    35    1
    75    42    43    1
    76    35    37    1
    77   221   220    2
    78   104   103    2
    79   103   102    1
    80    92    90   am
    81    66    65    1
    82    72    69    1
    83    56    58   ar
    84   225   223    1
    85    43    44   ar
    86    43    45   ar
    87   101   102    1
    88   172   171    1
    89    60    61    1
    90   220   219    1
    91    44    46   ar
    92    64    61    1
    93    64    65    1
    94   102   105    1
    95    61    62    1
    96   223   224    1
    97   223   222    1
    98   170   171   ar
    99   170   168   ar
   100    67    65    1
   101    26    25    2
   102    90    91    2
   103    90    89    1
   104   219   222    1
   105   219   218    1
   106   171   169   ar
   107    69    68    1
   108    69    70    1
   109    45    47   ar
   110   168   166   ar
   111    25    24    1
   112    46    48   ar
   113    89    88    1
   114    71    70    2
   115    70    77   am
   116   183   182   ar
   117   183   181   ar
   118    62    63    2
   119   105   106    1
   120   182   180   ar
   121    88    85    1
   122    47    48   ar
   123    24    23    1
   124    24    27    1
   125   108   107    1
   126   169   167   ar
   127   107   106    1
   128    77    78    1
   129    83    81    1
   130   166   167   ar
   131   166   165    1
   132   181   179   ar
   133    30    29    1
   134    85    84    1
   135    85    86    1
   136    78    81    1
   137    78    79    1
   138    29    28    1
   139   180   178   ar
   140    27    28    1
   141   165   162    1
   142    81    82    1
   143   215   214    2
   144   179   178   ar
   145    87    86    2
   146    86    93   am
   147     9     7   ar
   148     9    11   ar
   149   178   177    1
   150    79    80    2
   151   207   206    2
   152     7     6   ar
   153   161   162    1
   154    11    10   ar
   155   162   163    1
   156   214   213    1
   157     6     5    1
   158     6     8   ar
   159    10     8   ar
   160    93    94    1
   161     5     2    1
   162   213   212    1
   163   213   216    1
   164   173   163   am
   165   173   174    1
   166   163   164    2
   167   206   212   am
   168   206   205    1
   169   177   174    1
   170    21    19   ar
   171    21    22   ar
   172   210   208    1
   173   190   189    1
   174   174   175    1
   175    19    17   ar
   176   216   217    1
   177     4     3    2
   178   205   208    1
   179   205   204    1
   180    94    95    1
   181    94    97    1
   182   189   191    1
   183   189   188    1
   184    22    20   ar
   185     2     3    1
   186     2     1    1
   187    98    97    1
   188    98   100    1
   189    95    96    2
   190   208   209    1
   191    97    99    1
   192   203   202    1
   193   188   185    1
   194    17    16    1
   195    17    18   ar
   196   209   211    1
   197   175   176    2
   198    14    15    2
   199    14    13    1
   200    20    18   ar
   201    16    13    1
   202   202   200   ar
   203   202   201   ar
   204   200   198   ar
   205   185   184    1
   206   185   186    1
   207    13    12    1
   208   195   194    2
   209   201   199   ar
   210   198   197   ar
   211   186   187    2
   212   194   193    1
   213   199   197   ar
   214   197   196    1
   215   193   196    1
   216   193   192    1
