@<TRIPOS>MOLECULE
tmp/1jf7B00.pdb
 154 148 0 0 0
SMALL
GASTEIGER

@<TRIPOS>ATOM
      1  N         21.5790   -3.6600   47.4850 N.3    23  ARG23      -0.1241
      2  CA        20.4980   -2.9260   46.7870 C.3    23  ARG23       0.1606
      3  C         19.2920   -3.8450   46.4980 C.2    23  ARG23       0.2264
      4  O         18.1420   -3.4310   46.6740 O.2    23  ARG23      -0.2867
      5  CB        20.9400   -2.2240   45.4790 C.3    23  ARG23       0.0562
      6  CG        22.3910   -1.7870   45.4230 C.2    23  ARG23       0.0159
      7  CD        22.7720   -0.5060   44.6170 C.2    23  ARG23       0.1886
      8  NE        21.7000    0.1130   43.8420 N.pl3  23  ARG23      -0.0578
      9  CZ        21.6400    1.4230   43.5580 C.cat  23  ARG23       0.5393
     10  NH1       22.5950    2.2650   43.9700 N.pl3  23  ARG23       0.1358
     11  NH2       20.6250    1.9110   42.8680 N.pl3  23  ARG23       0.1358
     12  N         10.1800   17.9080   47.8950 N.3    43  ASN43      -0.1225
     13  CA        11.1200   16.8460   47.5640 C.3    43  ASN43       0.1785
     14  C         12.2290   17.3520   46.6740 C.2    43  ASN43       0.2597
     15  O         11.9660   17.9390   45.5960 O.2    43  ASN43      -0.2718
     16  CB        10.4120   15.7010   46.9040 C.3    43  ASN43       0.1169
     17  CG        10.2250   14.5500   47.8330 C.2    43  ASN43       0.2627
     18  OD1        9.8650   14.7350   49.0170 O.2    43  ASN43      -0.2716
     19  ND2       10.5560   13.3100   47.3260 N.am   43  ASN43      -0.0877
     20  N         13.4680   17.1960   47.1260 N.am   44  ARG44      -0.1966
     21  CA        14.5790   17.6610   46.2960 C.3    44  ARG44       0.1729
     22  C         14.7450   16.7440   45.1040 C.2    44  ARG44       0.2616
     23  O         14.9230   17.2110   44.0210 O.2    44  ARG44      -0.2715
     24  CB        15.8840   17.8280   47.0680 C.3    44  ARG44       0.0348
     25  CG        17.0930   18.1920   46.1850 C.3    44  ARG44       0.0492
     26  CD        18.3940   18.4220   46.9840 C.3    44  ARG44       0.2205
     27  NE        18.2610   19.5600   47.8820 N.pl3  44  ARG44      -0.0865
     28  CZ        18.3020   20.8250   47.5000 C.cat  44  ARG44       0.5346
     29  NH1       18.5330   21.1280   46.2440 N.pl3  44  ARG44       0.1354
     30  NH2       18.1320   21.7880   48.3840 N.pl3  44  ARG44       0.1354
     31  N         14.5990   15.4470   45.2810 N.am   45  TYR45      -0.1960
     32  CA        14.7850   14.5260   44.1700 C.3    45  TYR45       0.1771
     33  C         13.6050   13.6070   44.1000 C.2    45  TYR45       0.2619
     34  O         13.1290   13.1830   45.1220 O.2    45  TYR45      -0.2715
     35  CB        16.0390   13.6640   44.3890 C.3    45  TYR45       0.0574
     36  CG        17.3240   14.4430   44.5330 C.ar   45  TYR45      -0.0198
     37  CD1       17.9440   14.9660   43.4260 C.ar   45  TYR45      -0.0009
     38  CD2       17.9260   14.6360   45.7900 C.ar   45  TYR45      -0.0009
     39  CE1       19.1490   15.6540   43.5390 C.ar   45  TYR45       0.0417
     40  CE2       19.1010   15.3340   45.9200 C.ar   45  TYR45       0.0417
     41  CZ        19.7180   15.8290   44.7870 C.ar   45  TYR45       0.1957
     42  OH        20.8910   16.5360   44.8610 O.3    45  TYR45      -0.2866
     43  N         13.1680   13.2430   42.8920 N.am   46  ARG46      -0.1963
     44  CA        11.9410   12.4640   42.7530 C.3    46  ARG46       0.1729
     45  C         12.1190   11.0080   43.0650 C.2    46  ARG46       0.2616
     46  O         11.1210   10.3050   43.2720 O.2    46  ARG46      -0.2715
     47  CB        11.3360   12.5880   41.3610 C.3    46  ARG46       0.0348
     48  CG        12.2120   12.0300   40.3020 C.3    46  ARG46       0.0492
     49  CD        11.4970   11.6050   39.0700 C.3    46  ARG46       0.2205
     50  NE        10.7230   12.6810   38.4720 N.pl3  46  ARG46      -0.0865
     51  CZ        10.3830   12.7030   37.1850 C.cat  46  ARG46       0.5346
     52  NH1       10.7840   11.7200   36.3560 N.pl3  46  ARG46       0.1354
     53  NH2        9.6550   13.7230   36.7160 N.pl3  46  ARG46       0.1354
     54  N         13.3620   10.5330   43.0580 N.am   47  ASP47      -0.1957
     55  CA        13.6310    9.1260   43.3760 C.3    47  ASP47       0.1840
     56  C         14.1410    8.9180   44.8230 C.2    47  ASP47       0.2621
     57  O         14.5490    7.8090   45.1910 O.2    47  ASP47      -0.2715
     58  CB        14.6280    8.5310   42.4030 C.3    47  ASP47       0.1450
     59  CG        15.8830    9.3270   42.3490 C.2    47  ASP47       0.3671
     60  OD1       15.8590   10.4550   42.8510 O.co2  47  ASP47      -0.2456
     61  OD2       16.9470    8.9390   41.8360 O.co2  47  ASP47      -0.2456
     62  N         14.1320    9.9610   45.6370 N.am   48  VAL48      -0.1977
     63  CA        14.4620    9.7490   47.0330 C.3    48  VAL48       0.1596
     64  C         13.2840   10.0950   47.9530 C.2    48  VAL48       0.2287
     65  O         12.9970   11.2470   48.2050 O.2    48  VAL48      -0.2864
     66  CB        15.6800   10.5590   47.4550 C.3    48  VAL48       0.0276
     67  CG1       16.0140   10.2530   48.9140 C.3    48  VAL48       0.0022
     68  CG2       16.8520   10.2900   46.4990 C.3    48  VAL48       0.0022
     69  N         22.9750   21.8830   45.7010 N.3   119  LYS119     -0.1245
     70  CA        22.6790   20.6070   46.3220 C.3   119  LYS119      0.1561
     71  C         21.8730   20.8180   47.5910 C.2   119  LYS119      0.2260
     72  O         21.3750   19.8600   48.1870 O.2   119  LYS119     -0.2867
     73  CB        23.9990   19.9590   46.7230 C.3   119  LYS119      0.0271
     74  CG        24.9300   19.7010   45.5650 C.3   119  LYS119      0.0035
     75  CD        24.1440   19.1370   44.4250 C.3   119  LYS119      0.0206
     76  CE        23.8920   17.6660   44.5710 C.3   119  LYS119      0.1093
     77  NZ        25.1810   16.9130   44.8140 N.3   119  LYS119     -0.1314
     78  N         30.6230   14.1420   46.5720 N.3   180  ASP180     -0.1225
     79  CA        29.3460   13.5400   46.2450 C.3   180  ASP180      0.1805
     80  C         29.6350   12.2070   45.5660 C.2   180  ASP180      0.2597
     81  O         30.5230   12.1400   44.7200 O.2   180  ASP180     -0.2718
     82  CB        28.5830   14.4750   45.3120 C.3   180  ASP180      0.1424
     83  CG        29.4440   14.9550   44.1000 C.2   180  ASP180      0.3668
     84  OD1       30.4290   15.7590   44.2760 O.co2 180  ASP180     -0.2456
     85  OD2       29.2140   14.5500   42.9430 O.co2 180  ASP180     -0.2456
     86  N         28.9080   11.1540   45.9460 N.am  181  PHE181     -0.1976
     87  CA        29.1570    9.7990   45.4430 C.3   181  PHE181      0.1639
     88  C         30.6300    9.3400   45.6960 C.2   181  PHE181      0.2290
     89  O         31.1840    8.4920   44.9860 O.2   181  PHE181     -0.2864
     90  CB        28.7330    9.6710   43.9530 C.3   181  PHE181      0.0560
     91  CG        27.2400    9.8070   43.7330 C.ar  181  PHE181     -0.0200
     92  CD1       26.3910    8.7290   43.9600 C.ar  181  PHE181     -0.0042
     93  CD2       26.6770   11.0350   43.3710 C.ar  181  PHE181     -0.0042
     94  CE1       25.0090    8.8300   43.7860 C.ar  181  PHE181     -0.0003
     95  CE2       25.2870   11.1620   43.1950 C.ar  181  PHE181     -0.0003
     96  CZ        24.4440   10.0640   43.3970 C.ar  181  PHE181     -0.0000
     97  N         22.9700   15.2980   53.7260 N.3   214  CYS214     -0.1221
     98  CA        23.8850   15.6270   52.6430 C.3   214  CYS214      0.1808
     99  C         22.9440   16.2540   51.6010 C.2   214  CYS214      0.2602
    100  O         22.0590   17.0390   51.9680 O.2   214  CYS214     -0.2717
    101  CB        24.5900   14.3860   52.1090 C.3   214  CYS214      0.0970
    102  SG        23.5600   12.9110   52.0600 S.3   214  CYS214     -0.0800
    103  N         23.0930   15.9370   50.3310 N.am  215  SER215     -0.1938
    104  CA        22.1410   16.5110   49.4000 C.3   215  SER215      0.2055
    105  C         20.8780   15.6590   49.4000 C.2   215  SER215      0.2642
    106  O         19.8240   16.1580   49.7160 O.2   215  SER215     -0.2714
    107  CB        22.7100   16.7180   47.9950 C.3   215  SER215      0.2130
    108  OG        21.7290   17.3830   47.2470 O.3   215  SER215     -0.2179
    109  N         20.9820   14.3770   49.0840 N.am  216  ALA216     -0.1977
    110  CA        19.7840   13.5030   49.2030 C.3   216  ALA216      0.1597
    111  C         19.5450   12.8880   50.5950 C.2   216  ALA216      0.2287
    112  O         18.4820   12.3280   50.8300 O.2   216  ALA216     -0.2864
    113  CB        19.7980   12.3910   48.1630 C.3   216  ALA216      0.0319
    114  N         21.0360   10.3120   51.8730 N.3   218  ILE218     -0.1231
    115  CA        21.1460    8.8750   51.7970 C.3   218  ILE218      0.1692
    116  C         22.5280    8.2530   51.5790 C.2   218  ILE218      0.2593
    117  O         22.7910    7.2120   52.1720 O.2   218  ILE218     -0.2718
    118  CB        20.1720    8.3180   50.7570 C.3   218  ILE218      0.0266
    119  CG1       20.5680    8.7050   49.3140 C.3   218  ILE218      0.0019
    120  CG2       18.6640    8.6230   51.1900 C.3   218  ILE218      0.0020
    121  CD1       19.5340    8.0880   48.2080 C.3   218  ILE218      0.0001
    122  N         23.3810    8.8690   50.7400 N.am  219  GLY219     -0.1942
    123  CA        24.6980    8.3340   50.4020 C.3   219  GLY219      0.2014
    124  C         25.6970    8.6390   51.5050 C.2   219  GLY219      0.2638
    125  O         25.9640    7.8090   52.3770 O.2   219  GLY219     -0.2714
    126  N         26.2190    9.8410   51.4990 N.am  220  ARG220     -0.1977
    127  CA        27.1390   10.2950   52.5550 C.3   220  ARG220      0.1597
    128  C         26.5270   10.0980   53.9590 C.2   220  ARG220      0.2287
    129  O         27.1650    9.5280   54.9060 O.2   220  ARG220     -0.2864
    130  CB        27.5400   11.7740   52.2970 C.3   220  ARG220      0.0334
    131  CG        28.6090   11.8800   51.1340 C.3   220  ARG220      0.0492
    132  CD        28.9450   13.3080   50.6580 C.3   220  ARG220      0.2205
    133  NE        27.8490   13.8640   49.8520 N.pl3 220  ARG220     -0.0865
    134  CZ        27.9140   15.0460   49.3180 C.cat 220  ARG220      0.5346
    135  NH1       29.0370   15.7430   49.4330 N.pl3 220  ARG220      0.1354
    136  NH2       26.8980   15.5210   48.6270 N.pl3 220  ARG220      0.1354
    137  N         25.2960    4.8590   48.6300 N.3   261  GLN261     -0.1245
    138  CA        25.0850    5.0200   47.1900 C.3   261  GLN261      0.1566
    139  C         26.1340    4.4390   46.2120 C.2   261  GLN261      0.2260
    140  O         25.8530    4.3540   45.0160 O.2   261  GLN261     -0.2867
    141  CB        24.8700    6.4980   46.9210 C.3   261  GLN261      0.0367
    142  CG        23.5130    6.9250   47.3690 C.3   261  GLN261      0.0905
    143  CD        22.4810    6.4190   46.3660 C.2   261  GLN261      0.2608
    144  OE1       22.5290    6.8260   45.2270 O.2   261  GLN261     -0.2717
    145  NE2       21.6250    5.4820   46.7650 N.am  261  GLN261     -0.0878
    146  N         31.5460    3.5090   48.9310 N.3   265  GLN265     -0.1245
    147  CA        31.1320    4.0610   50.2000 C.3   265  GLN265      0.1566
    148  C         30.9240    2.8730   51.0840 C.2   265  GLN265      0.2260
    149  O         31.1020    2.9700   52.2730 O.2   265  GLN265     -0.2867
    150  CB        29.8720    4.8950   50.1140 C.3   265  GLN265      0.0367
    151  CG        30.0130    6.1780   49.3030 C.3   265  GLN265      0.0905
    152  CD        28.7120    6.9820   49.2640 C.2   265  GLN265      0.2608
    153  OE1       27.6180    6.4270   49.4130 O.2   265  GLN265     -0.2717
    154  NE2       28.8260    8.2620   49.0490 N.am  265  GLN265     -0.0878
@<TRIPOS>BOND
     1    52    51    1
     2    53    51    1
     3    51    50    2
     4    50    49    1
     5    49    48    1
     6    48    47    1
     7    47    44    1
     8    61    59   ar
     9    59    58    1
    10    59    60   ar
    11    58    55    1
    12    44    43    1
    13    44    45    1
    14    11     9    1
    15    43    33   am
    16    85    83   ar
    17    54    45   am
    18    54    55    1
    19    45    46    2
    20    95    93   ar
    21    95    96   ar
    22    93    91   ar
    23    55    56    1
    24    96    94   ar
    25    37    39   ar
    26    37    36   ar
    27    39    41   ar
    28     9     8    2
    29     9    10    1
    30    91    90    1
    31    91    92   ar
    32    94    92   ar
    33     8     7    1
    34    90    87    1
    35    23    22    2
    36    33    32    1
    37    33    34    2
    38    83    84   ar
    39    83    82    1
    40    32    35    1
    41    32    31    1
    42    35    36    1
    43    75    76    1
    44    75    74    1
    45    36    38   ar
    46    76    77    1
    47     7     6    2
    48    81    80    2
    49    41    42    1
    50    41    40   ar
    51    56    57    2
    52    56    62   am
    53    89    88    2
    54   140   139    2
    55    22    31   am
    56    22    21    1
    57   144   143    2
    58    82    79    1
    59     6     5    1
    60    87    88    1
    61    87    86    1
    62     5     2    1
    63    74    73    1
    64    80    86   am
    65    80    79    1
    66    15    14    2
    67    62    63    1
    68    69    70    1
    69    38    40   ar
    70    25    26    1
    71    25    24    1
    72   139   138    1
    73    29    28    1
    74    79    78    1
    75    21    24    1
    76    21    20    1
    77    70    73    1
    78    70    71    1
    79   143   145   am
    80   143   142    1
    81     3     4    2
    82     3     2    1
    83    68    66    1
    84    14    20   am
    85    14    13    1
    86     2     1    1
    87    16    13    1
    88    16    17    1
    89   141   138    1
    90   141   142    1
    91    26    27    1
    92    63    66    1
    93    63    64    1
    94   138   137    1
    95   108   107    1
    96    19    17   am
    97    66    67    1
    98    28    27    2
    99    28    30    1
   100    13    12    1
   101    71    72    2
   102    17    18    2
   103    64    65    2
   104   107   104    1
   105   113   110    1
   106   121   119    1
   107   136   134    1
   108   146   147    1
   109   154   152   am
   110   109   110    1
   111   109   105   am
   112   110   111    1
   113   152   151    1
   114   152   153    2
   115   151   150    1
   116   119   118    1
   117   134   135    1
   118   134   133    2
   119   104   105    1
   120   104   103    1
   121   105   106    2
   122   133   132    1
   123   150   147    1
   124   147   148    1
   125   103    99   am
   126   123   122    1
   127   123   124    1
   128   111   112    2
   129   132   131    1
   130   122   116   am
   131   118   120    1
   132   118   115    1
   133   148   149    2
   134   131   130    1
   135   126   124   am
   136   126   127    1
   137   124   125    2
   138   116   115    1
   139   116   117    2
   140    99   100    2
   141    99    98    1
   142   115   114    1
   143   102   101    1
   144   101    98    1
   145   130   127    1
   146   127   128    1
   147    98    97    1
   148   128   129    2
