@<TRIPOS>MOLECULE
tmp/1jf9A00.pdb
 112 103 0 0 0
SMALL
GASTEIGER

@<TRIPOS>ATOM
      1  N         30.6680   56.2970    6.7690 N.3    29  ALA29      -0.1231
      2  CA        29.8470   55.1040    7.0300 C.3    29  ALA29       0.1694
      3  C         29.8710   54.1850    5.8190 C.2    29  ALA29       0.2591
      4  O         29.6840   52.9800    6.0440 O.2    29  ALA29      -0.2718
      5  CB        28.4300   55.4890    7.4040 C.3    29  ALA29       0.0304
      6  N         30.0520   54.6500    4.5900 N.am   30  ALA30      -0.1980
      7  CA        30.1510   53.7570    3.4370 C.3    30  ALA30       0.1597
      8  C         31.5510   53.1430    3.4160 C.2    30  ALA30       0.2287
      9  O         31.7130   51.9530    3.1340 O.2    30  ALA30      -0.2864
     10  CB        29.8460   54.4690    2.1070 C.3    30  ALA30       0.0319
     11  N         34.9700   40.7240    4.7300 N.3    92  GLY92      -0.1210
     12  CA        34.2720   41.8470    5.3230 C.3    92  GLY92       0.1956
     13  C         33.0300   41.3130    6.0430 C.2    92  GLY92       0.2613
     14  O         32.8120   40.0920    6.0630 O.2    92  GLY92      -0.2717
     15  N         32.2410   42.2380    6.5910 N.am   93  THR93      -0.1938
     16  CA        31.0070   41.8350    7.2800 C.3    93  THR93       0.2028
     17  C         30.1340   40.9210    6.4400 C.2    93  THR93       0.2642
     18  O         29.5980   39.9210    6.9290 O.2    93  THR93      -0.2714
     19  CB        30.2210   43.1270    7.6110 C.3    93  THR93       0.1808
     20  OG1       31.0390   43.9650    8.4620 O.3    93  THR93      -0.2208
     21  CG2       28.9130   42.8540    8.3210 C.3    93  THR93       0.0379
     22  N         29.9340   41.2520    5.1580 N.am   94  THR94      -0.1950
     23  CA        29.0670   40.4820    4.2690 C.3    94  THR94       0.1897
     24  C         29.5290   39.0320    4.1500 C.2    94  THR94       0.2313
     25  O         28.7450   38.0780    4.2850 O.2    94  THR94      -0.2863
     26  CB        29.0720   41.1150    2.8510 C.3    94  THR94       0.1794
     27  OG1       28.6690   42.4850    2.9370 O.3    94  THR94      -0.2208
     28  CG2       28.1520   40.3830    1.8840 C.3    94  THR94       0.0378
     29  N         20.7990   46.1120    7.2420 N.3   122  HIS122     -0.1241
     30  CA        21.4510   46.2930    5.9450 C.3   122  HIS122      0.1621
     31  C         21.2310   45.0200    5.1360 C.2   122  HIS122      0.2264
     32  O         21.0890   43.9380    5.7430 O.2   122  HIS122     -0.2867
     33  CB        22.9370   46.5070    6.2320 C.3   122  HIS122      0.0745
     34  CG        23.8780   46.7750    5.1100 C.ar  122  HIS122      0.0817
     35  ND1       24.2340   45.8470    4.1690 N.ar  122  HIS122     -0.2268
     36  CD2       24.5810   47.9260    4.8230 C.ar  122  HIS122      0.1154
     37  CE1       25.1120   46.3840    3.3160 C.ar  122  HIS122      0.1986
     38  NE2       25.3380   47.6320    3.7160 N.ar  122  HIS122     -0.2212
     39  N         23.3320   43.1070    3.7660 N.3   124  ALA124     -0.1245
     40  CA        24.2680   42.0610    4.1610 C.3   124  ALA124      0.1562
     41  C         23.6770   41.1640    5.2490 C.2   124  ALA124      0.2260
     42  O         24.0670   40.0180    5.3250 O.2   124  ALA124     -0.2867
     43  CB        25.5700   42.7010    4.6890 C.3   124  ALA124      0.0290
     44  N         21.4160   44.2480   13.9410 N.3   170  THR170     -0.1218
     45  CA        22.4610   45.2460   13.8320 C.3   170  THR170      0.1862
     46  C         22.7430   45.8880   15.1930 C.2   170  THR170      0.2287
     47  O         21.8590   46.1720   16.0140 O.2   170  THR170     -0.2866
     48  CB        22.1590   46.3380   12.7940 C.3   170  THR170      0.1770
     49  OG1       23.3300   47.1670   12.6340 O.3   170  THR170     -0.2211
     50  CG2       21.0450   47.3070   13.1840 C.3   170  THR170      0.0375
     51  N         24.4740   48.8600   15.4220 N.3   172  VAL172     -0.1245
     52  CA        24.2380   50.2560   15.1050 C.3   172  VAL172      0.1561
     53  C         23.7660   50.3750   13.6510 C.2   172  VAL172      0.2260
     54  O         24.4520   49.9020   12.7540 O.2   172  VAL172     -0.2867
     55  CB        25.4970   51.1230   15.2860 C.3   172  VAL172      0.0252
     56  CG1       25.2390   52.5670   14.8140 C.3   172  VAL172      0.0019
     57  CG2       25.9790   51.1800   16.7430 C.3   172  VAL172      0.0019
     58  N         23.3020   51.6040    9.9600 N.3   174  ASN174     -0.1240
     59  CA        24.1020   52.4180    9.0440 C.3   174  ASN174      0.1653
     60  C         23.3100   53.6130    8.5190 C.2   174  ASN174      0.2266
     61  O         23.9040   54.4470    7.8290 O.2   174  ASN174     -0.2867
     62  CB        24.6380   51.6310    7.8380 C.3   174  ASN174      0.1155
     63  CG        23.5890   51.1600    6.8600 C.2   174  ASN174      0.2627
     64  OD1       22.5310   50.6530    7.2620 O.2   174  ASN174     -0.2716
     65  ND2       23.7700   51.2650    5.5460 N.am  174  ASN174     -0.0877
     66  N         25.5100   42.2640   13.7740 N.3   199  ASP199     -0.1239
     67  CA        26.1800   42.9870   12.6710 C.3   199  ASP199      0.1674
     68  C         26.8060   44.2260   13.2960 C.2   199  ASP199      0.2266
     69  O         26.0710   45.1730   13.6380 O.2   199  ASP199     -0.2867
     70  CB        25.1670   43.3400   11.5800 C.3   199  ASP199      0.1410
     71  CG        25.7280   44.1450   10.4240 C.2   199  ASP199      0.3668
     72  OD1       26.8960   44.5830   10.5110 O.co2 199  ASP199     -0.2456
     73  OD2       25.0240   44.3550    9.3970 O.co2 199  ASP199     -0.2456
     74  N         29.1900   46.2500   11.9600 N.3   201  ALA201     -0.1231
     75  CA        29.9150   47.0570   11.0040 C.3   201  ALA201      0.1694
     76  C         29.9180   48.5520   11.3050 C.2   201  ALA201      0.2591
     77  O         30.9170   49.1790   10.9190 O.2   201  ALA201     -0.2718
     78  CB        29.4540   46.8230    9.5490 C.3   201  ALA201      0.0304
     79  N         28.9040   49.1330   11.9350 N.am  202  GLN202     -0.1979
     80  CA        28.8970   50.5490   12.2390 C.3   202  GLN202      0.1601
     81  C         29.0990   50.8170   13.7260 C.2   202  GLN202      0.2287
     82  O         28.8540   51.9340   14.1800 O.2   202  GLN202     -0.2864
     83  CB        27.5560   51.2150   11.8800 C.3   202  GLN202      0.0394
     84  CG        27.2580   51.2450   10.4080 C.3   202  GLN202      0.0908
     85  CD        28.2330   52.0930    9.5930 C.2   202  GLN202      0.2608
     86  OE1       28.7810   53.0860   10.0710 O.2   202  GLN202     -0.2717
     87  NE2       28.4140   51.6890    8.3260 N.am  202  GLN202     -0.0878
     88  N         33.8600   45.0650    9.3950 N.3   222  SER222     -0.1217
     89  CA        34.7490   45.1700    8.2340 C.3   222  SER222      0.1889
     90  C         35.9040   46.1360    8.5120 C.2   222  SER222      0.2288
     91  O         35.6800   47.2190    9.1080 O.2   222  SER222     -0.2866
     92  CB        33.9890   45.7750    7.0260 C.3   222  SER222      0.2089
     93  OG        32.8540   44.9890    6.7050 O.3   222  SER222     -0.2183
     94  N         37.5370   48.1660    6.3430 N.3   224  HIS224     -0.1226
     95  CA        37.5540   49.4270    5.5920 C.3   224  HIS224      0.1752
     96  C         36.7280   50.5170    6.2360 C.2   224  HIS224      0.2595
     97  O         36.9990   51.6930    5.9250 O.2   224  HIS224     -0.2718
     98  CB        37.1680   49.2320    4.1110 C.3   224  HIS224      0.0759
     99  CG        35.7160   48.8310    3.9550 C.ar  224  HIS224      0.0818
    100  ND1       34.7350   49.7500    3.6780 N.ar  224  HIS224     -0.2268
    101  CD2       35.1030   47.6290    4.0900 C.ar  224  HIS224      0.1154
    102  CE1       33.5510   49.1160    3.6060 C.ar  224  HIS224      0.1986
    103  NE2       33.7550   47.8180    3.8650 N.ar  224  HIS224     -0.2212
    104  N         35.7680   50.1900    7.0880 N.am  225  LYS225     -0.1980
    105  CA        35.0330   51.2040    7.8120 C.3   225  LYS225      0.1596
    106  C         35.7500   51.6080    9.1000 C.2   225  LYS225      0.2287
    107  O         35.3730   52.6110    9.7200 O.2   225  LYS225     -0.2864
    108  CB        33.6470   50.6980    8.2670 C.3   225  LYS225      0.0298
    109  CG        32.7990   50.6330    7.0050 C.3   225  LYS225      0.0038
    110  CD        31.5160   49.8340    7.2430 C.3   225  LYS225      0.0206
    111  CE        30.7520   50.2260    5.9710 C.3   225  LYS225      0.1093
    112  NZ        29.6460   49.2400    5.7310 N.3   225  LYS225     -0.1314
@<TRIPOS>BOND
     1    28    26    1
     2    10     7    1
     3    26    27    1
     4    26    23    1
     5     9     8    2
     6    37    38   ar
     7    37    35   ar
     8     8     7    1
     9     7     6    1
    10   102   100   ar
    11   102   103   ar
    12   100    99   ar
    13    38    36   ar
    14    39    40    1
    15   103   101   ar
    16    99   101   ar
    17    99    98    1
    18    98    95    1
    19    24    23    1
    20    24    25    2
    21    40    43    1
    22    40    41    1
    23    35    34   ar
    24    23    22    1
    25     6     3   am
    26    11    12    1
    27    36    34   ar
    28    34    33    1
    29    31    32    2
    30    31    30    1
    31    22    17   am
    32    41    42    2
    33    12    13    1
    34    65    63   am
    35    95    96    1
    36    95    94    1
    37   112   111    1
    38     3     4    2
    39     3     2    1
    40    97    96    2
    41    30    33    1
    42    30    29    1
    43   111   110    1
    44    13    14    2
    45    13    15   am
    46    96   104   am
    47    17    18    2
    48    17    16    1
    49    15    16    1
    50    93    92    1
    51     1     2    1
    52    63    64    2
    53    63    62    1
    54   109   110    1
    55   109   108    1
    56    92    89    1
    57     2     5    1
    58   104   105    1
    59    16    19    1
    60    19    21    1
    61    19    20    1
    62   105   108    1
    63   105   106    1
    64    61    60    2
    65    62    59    1
    66    89    90    1
    67    89    88    1
    68    87    85   am
    69    90    91    2
    70    60    59    1
    71    59    58    1
    72   106   107    2
    73    73    71   ar
    74    78    75    1
    75    85    86    2
    76    85    84    1
    77    84    83    1
    78    71    72   ar
    79    71    70    1
    80    77    76    2
    81    75    76    1
    82    75    74    1
    83    76    79   am
    84    70    67    1
    85    83    80    1
    86    79    80    1
    87    80    81    1
    88    49    48    1
    89    67    68    1
    90    67    66    1
    91    54    53    2
    92    48    50    1
    93    48    45    1
    94    68    69    2
    95    53    52    1
    96    81    82    2
    97    45    44    1
    98    45    46    1
    99    56    55    1
   100    52    55    1
   101    52    51    1
   102    46    47    2
   103    55    57    1
