@<TRIPOS>MOLECULE
tmp/1jfhA04.pdb
 95 92 0 0 0
SMALL
GASTEIGER

@<TRIPOS>ATOM
      1  N         18.7560   29.8720   11.6990 N.3   321  LYS321     -0.1245
      2  CA        20.1380   30.2650   11.9280 C.3   321  LYS321      0.1561
      3  C         20.8300   30.7040   10.6400 C.2   321  LYS321      0.2260
      4  O         21.6870   31.5900   10.6680 O.2   321  LYS321     -0.2867
      5  CB        20.9130   29.1410   12.6100 C.3   321  LYS321      0.0271
      6  CG        20.6280   29.0410   14.1040 C.3   321  LYS321      0.0035
      7  CD        21.2790   27.8220   14.7290 C.3   321  LYS321      0.0206
      8  CE        20.6210   26.5300   14.2550 C.3   321  LYS321      0.1093
      9  NZ        21.2850   25.3330   14.8510 N.3   321  LYS321     -0.1314
     10  N         25.1480   25.2830   30.0760 N.3   374  ASP374     -0.1225
     11  CA        25.5680   25.4280   28.6830 C.3   374  ASP374      0.1805
     12  C         25.2430   26.7970   28.0770 C.2   374  ASP374      0.2598
     13  O         25.3700   26.9880   26.8710 O.2   374  ASP374     -0.2718
     14  CB        24.9660   24.3080   27.8220 C.3   374  ASP374      0.1424
     15  CG        23.4410   24.3320   27.7910 C.2   374  ASP374      0.3668
     16  OD1       22.8140   25.0480   28.6030 O.co2 374  ASP374     -0.2456
     17  OD2       22.8640   23.6150   26.9450 O.co2 374  ASP374     -0.2456
     18  N         24.8610   27.7410   28.9370 N.am  375  THR375     -0.1939
     19  CA        24.5100   29.1230   28.5760 C.3   375  THR375      0.2028
     20  C         23.1350   29.3280   27.9350 C.2   375  THR375      0.2642
     21  O         22.8040   30.4370   27.5200 O.2   375  THR375     -0.2714
     22  CB        25.6060   29.8450   27.7260 C.3   375  THR375      0.1808
     23  OG1       25.5460   29.4100   26.3650 O.3   375  THR375     -0.2208
     24  CG2       27.0050   29.5820   28.2980 C.3   375  THR375      0.0379
     25  N         22.3350   28.2670   27.8510 N.am  376  THR376     -0.1950
     26  CA        20.9830   28.3850   27.2950 C.3   376  THR376      0.1897
     27  C         20.0460   28.7900   28.4350 C.2   376  THR376      0.2313
     28  O         20.4700   28.8680   29.5880 O.2   376  THR376     -0.2863
     29  CB        20.4820   27.0620   26.6710 C.3   376  THR376      0.1794
     30  OG1       20.4820   26.0250   27.6620 O.3   376  THR376     -0.2208
     31  CG2       21.3580   26.6600   25.4850 C.3   376  THR376      0.0378
     32  N         21.2870   33.7610   22.6690 N.3   386  ARG386     -0.1231
     33  CA        22.3270   33.0080   23.3640 C.3   386  ARG386      0.1694
     34  C         22.8310   31.7940   22.5740 C.2   386  ARG386      0.2592
     35  O         23.8140   31.1600   22.9640 O.2   386  ARG386     -0.2718
     36  CB        21.8610   32.5870   24.7520 C.3   386  ARG386      0.0321
     37  CG        21.9810   33.6970   25.7830 C.3   386  ARG386      0.0489
     38  CD        21.3750   33.2730   27.0930 C.3   386  ARG386      0.2205
     39  NE        21.7480   34.1720   28.1800 N.pl3 386  ARG386     -0.0865
     40  CZ        22.8130   34.0020   28.9600 C.cat 386  ARG386      0.5346
     41  NH1       23.5940   32.9470   28.7920 N.pl3 386  ARG386      0.1354
     42  NH2       23.0820   34.8720   29.9260 N.pl3 386  ARG386      0.1354
     43  N         22.1610   31.4630   21.4710 N.am  387  TRP387     -0.1962
     44  CA        22.6070   30.3440   20.6310 C.3   387  TRP387      0.1771
     45  C         23.9620   30.7770   20.0790 C.2   387  TRP387      0.2619
     46  O         24.0920   31.9020   19.6040 O.2   387  TRP387     -0.2715
     47  CB        21.6460   30.1210   19.4610 C.3   387  TRP387      0.0590
     48  CG        20.2730   29.6580   19.8350 C.ar  387  TRP387      0.0006
     49  CD1       19.7770   29.4670   21.0950 C.ar  387  TRP387      0.0946
     50  CD2       19.2150   29.3220   18.9310 C.ar  387  TRP387      0.0152
     51  NE1       18.4780   29.0310   21.0270 N.ar  387  TRP387     -0.2442
     52  CE2       18.1060   28.9330   19.7130 C.ar  387  TRP387      0.0810
     53  CE3       19.0980   29.3110   17.5350 C.ar  387  TRP387      0.0012
     54  CZ2       16.8900   28.5370   19.1450 C.ar  387  TRP387      0.0191
     55  CZ3       17.8870   28.9160   16.9690 C.ar  387  TRP387      0.0001
     56  CH2       16.8000   28.5350   17.7760 C.ar  387  TRP387      0.0015
     57  N         24.9610   29.8970   20.1310 N.am  388  ARG388     -0.1963
     58  CA        26.3100   30.2280   19.6590 C.3   388  ARG388      0.1729
     59  C         26.3490   30.8250   18.2580 C.2   388  ARG388      0.2616
     60  O         27.0390   31.8110   18.0060 O.2   388  ARG388     -0.2715
     61  CB        27.2160   28.9910   19.6750 C.3   388  ARG388      0.0348
     62  CG        28.6610   29.2990   19.2600 C.3   388  ARG388      0.0492
     63  CD        29.3170   28.1280   18.5320 C.3   388  ARG388      0.2205
     64  NE        29.2240   26.8880   19.2920 N.pl3 388  ARG388     -0.0865
     65  CZ        28.5550   25.8100   18.8970 C.cat 388  ARG388      0.5346
     66  NH1       27.9330   25.7860   17.7260 N.pl3 388  ARG388      0.1354
     67  NH2       28.5320   24.7390   19.6720 N.pl3 388  ARG388      0.1354
     68  N         25.6220   30.1840   17.3540 N.am  389  GLU389     -0.1977
     69  CA        25.5490   30.5780   15.9500 C.3   389  GLU389      0.1602
     70  C         25.0480   32.0070   15.7600 C.2   389  GLU389      0.2287
     71  O         25.4470   32.6920   14.8200 O.2   389  GLU389     -0.2864
     72  CB        24.6450   29.6040   15.1840 C.3   389  GLU389      0.0415
     73  CG        25.1180   28.1430   15.2150 C.3   389  GLU389      0.1163
     74  CD        24.5350   27.3150   16.3650 C.2   389  GLU389      0.3649
     75  OE1       24.0550   27.8890   17.3670 O.co2 389  GLU389     -0.2457
     76  OE2       24.5590   26.0680   16.2680 O.co2 389  GLU389     -0.2457
     77  N         24.9500   34.4830   18.4920 N.3   391  ARG391     -0.1245
     78  CA        25.8010   35.4110   19.2380 C.3   391  ARG391      0.1563
     79  C         27.1140   35.6840   18.5120 C.2   391  ARG391      0.2260
     80  O         27.5980   36.8160   18.5090 O.2   391  ARG391     -0.2867
     81  CB        26.0790   34.9280   20.6680 C.3   391  ARG391      0.0307
     82  CG        26.9880   33.7200   20.7980 C.3   391  ARG391      0.0489
     83  CD        27.5420   33.6130   22.2210 C.3   391  ARG391      0.2205
     84  NE        28.0020   32.2580   22.5330 N.pl3 391  ARG391     -0.0865
     85  CZ        29.1800   31.7580   22.1730 C.cat 391  ARG391      0.5346
     86  NH1       30.0480   32.4980   21.4950 N.pl3 391  ARG391      0.1354
     87  NH2       29.4970   30.5120   22.5030 N.pl3 391  ARG391      0.1354
     88  N         24.8350   22.7310   10.9960 N.3   484  ASP484     -0.1239
     89  CA        24.7720   24.1280   10.5740 C.3   484  ASP484      0.1674
     90  C         25.5740   24.1510    9.2780 C.2   484  ASP484      0.2266
     91  O         26.8000   24.0870    9.2990 O.2   484  ASP484     -0.2867
     92  CB        25.4130   25.0510   11.6170 C.3   484  ASP484      0.1410
     93  CG        24.6770   25.0340   12.9470 C.2   484  ASP484      0.3668
     94  OD1       23.4730   25.3660   12.9800 O.co2 484  ASP484     -0.2456
     95  OD2       25.3030   24.6840   13.9640 O.co2 484  ASP484     -0.2456
@<TRIPOS>BOND
     1    90    91    2
     2    90    89    1
     3    89    88    1
     4    89    92    1
     5     3     4    2
     6     3     2    1
     7    92    93    1
     8     1     2    1
     9     2     5    1
    10     5     6    1
    11    93    94   ar
    12    93    95   ar
    13     6     7    1
    14     8     7    1
    15     8     9    1
    16    71    70    2
    17    72    73    1
    18    72    69    1
    19    73    74    1
    20    70    69    1
    21    69    68    1
    22    76    74   ar
    23    74    75   ar
    24    55    53   ar
    25    55    56   ar
    26    68    59   am
    27    53    50   ar
    28    66    65    1
    29    56    54   ar
    30    60    59    2
    31    59    58    1
    32    77    78    1
    33    80    79    2
    34    79    78    1
    35    63    62    1
    36    63    64    1
    37    65    64    2
    38    65    67    1
    39    50    52   ar
    40    50    48   ar
    41    54    52   ar
    42    78    81    1
    43    62    61    1
    44    47    48    1
    45    47    44    1
    46    46    45    2
    47    58    61    1
    48    58    57    1
    49    52    51   ar
    50    48    49   ar
    51    45    57   am
    52    45    44    1
    53    44    43    1
    54    81    82    1
    55    82    83    1
    56    51    49   ar
    57    43    34   am
    58    86    85    1
    59    85    87    1
    60    85    84    2
    61    83    84    1
    62    34    35    2
    63    34    33    1
    64    32    33    1
    65    33    36    1
    66    36    37    1
    67    31    29    1
    68    37    38    1
    69    23    22    1
    70    29    26    1
    71    29    30    1
    72    13    12    2
    73    17    15   ar
    74    38    39    1
    75    26    25    1
    76    26    27    1
    77    21    20    2
    78    22    24    1
    79    22    19    1
    80    15    14    1
    81    15    16   ar
    82    14    11    1
    83    25    20   am
    84    20    19    1
    85    12    11    1
    86    12    18   am
    87    39    40    2
    88    27    28    2
    89    19    18    1
    90    11    10    1
    91    41    40    1
    92    40    42    1
