@<TRIPOS>MOLECULE
tmp/1jfhA02.pdb
 98 93 0 0 0
SMALL
GASTEIGER

@<TRIPOS>ATOM
      1  N         -7.8600   48.5870    3.5450 N.3   150  TYR150     -0.1241
      2  CA        -6.5160   49.1480    3.6110 C.3   150  TYR150      0.1605
      3  C         -6.1310   49.9210    2.3550 C.2   150  TYR150      0.2264
      4  O         -4.9710   50.2920    2.1750 O.2   150  TYR150     -0.2867
      5  CB        -5.4870   48.0550    3.9230 C.3   150  TYR150      0.0534
      6  CG        -5.3800   47.7590    5.4010 C.ar  150  TYR150     -0.0201
      7  CD1       -6.2860   46.9050    6.0310 C.ar  150  TYR150     -0.0009
      8  CD2       -4.4050   48.3760    6.1820 C.ar  150  TYR150     -0.0009
      9  CE1       -6.2270   46.6810    7.4060 C.ar  150  TYR150      0.0417
     10  CE2       -4.3350   48.1590    7.5530 C.ar  150  TYR150      0.0417
     11  CZ        -5.2480   47.3140    8.1560 C.ar  150  TYR150      0.1957
     12  OH        -5.1930   47.1230    9.5160 O.3   150  TYR150     -0.2866
     13  N         -8.4090   50.3370   15.2090 N.3   161  LEU161     -0.1231
     14  CA        -7.6070   49.1780   14.8400 C.3   161  LEU161      0.1693
     15  C         -8.1110   48.0810   15.7740 C.2   161  LEU161      0.2591
     16  O         -7.9700   48.1960   16.9900 O.2   161  LEU161     -0.2718
     17  CB        -6.1290   49.4550   15.1370 C.3   161  LEU161      0.0284
     18  CG        -5.0140   48.7070   14.3950 C.3   161  LEU161      0.0019
     19  CD1       -3.8040   48.6190   15.3270 C.3   161  LEU161      0.0001
     20  CD2       -5.4400   47.3130   13.9440 C.3   161  LEU161      0.0001
     21  N         -8.7070   47.0330   15.2050 N.am  162  VAL162     -0.1980
     22  CA        -9.2630   45.9070   15.9650 C.3   162  VAL162      0.1595
     23  C        -10.0320   46.3180   17.2250 C.2   162  VAL162      0.2287
     24  O         -9.8340   45.7700   18.3130 O.2   162  VAL162     -0.2864
     25  CB        -8.2050   44.7910   16.2670 C.3   162  VAL162      0.0276
     26  CG1       -7.7720   44.1320   14.9770 C.3   162  VAL162      0.0022
     27  CG2       -6.9930   45.3450   16.9970 C.3   162  VAL162      0.0022
     28  N          4.9580   51.9950   17.7540 N.3   196  ASP196     -0.1225
     29  CA         3.9620   50.9780   17.4350 C.3   196  ASP196      0.1805
     30  C          2.8450   51.4950   16.5260 C.2   196  ASP196      0.2597
     31  O          2.4080   52.6400   16.6550 O.2   196  ASP196     -0.2718
     32  CB         3.3650   50.4330   18.7380 C.3   196  ASP196      0.1424
     33  CG         2.2890   49.3910   18.5000 C.2   196  ASP196      0.3668
     34  OD1        2.6210   48.2850   18.0250 O.co2 196  ASP196     -0.2456
     35  OD2        1.1120   49.6870   18.7870 O.co2 196  ASP196     -0.2456
     36  N          2.3990   50.6380   15.6100 N.am  197  ALA197     -0.1979
     37  CA         1.3180   50.9520   14.6710 C.3   197  ALA197      0.1597
     38  C          1.4420   52.3150   13.9920 C.2   197  ALA197      0.2287
     39  O          0.4570   53.0430   13.8800 O.2   197  ALA197     -0.2864
     40  CB        -0.0450   50.8400   15.3810 C.3   197  ALA197      0.0319
     41  N          1.7140   52.9800   10.9840 N.3   199  LYS199     -0.1231
     42  CA         0.9060   52.9590    9.7720 C.3   199  LYS199      0.1693
     43  C         -0.4900   53.5190   10.0470 C.2   199  LYS199      0.2592
     44  O         -1.1160   54.1110    9.1670 O.2   199  LYS199     -0.2718
     45  CB         0.8120   51.5130    9.2890 C.3   199  LYS199      0.0285
     46  CG         0.0310   51.2740    8.0170 C.3   199  LYS199      0.0035
     47  CD         0.1260   49.7960    7.6970 C.3   199  LYS199      0.0206
     48  CE        -0.7030   49.4030    6.5150 C.3   199  LYS199      0.1093
     49  NZ        -0.4430   47.9670    6.2270 N.3   199  LYS199     -0.1314
     50  N         -0.9500   53.3670   11.2870 N.am  200  HIS200     -0.1976
     51  CA        -2.2720   53.8280   11.6960 C.3   200  HIS200      0.1656
     52  C         -2.3250   55.2460   12.2550 C.2   200  HIS200      0.2291
     53  O         -3.3080   55.6380   12.8840 O.2   200  HIS200     -0.2864
     54  CB        -2.8780   52.8220   12.6750 C.3   200  HIS200      0.0771
     55  CG        -2.9270   51.4340   12.1220 C.ar  200  HIS200      0.0820
     56  ND1       -3.9790   50.9740   11.3590 N.ar  200  HIS200     -0.2267
     57  CD2       -2.0070   50.4390   12.1370 C.ar  200  HIS200      0.1154
     58  CE1       -3.7020   49.7580   10.9220 C.ar  200  HIS200      0.1986
     59  NE2       -2.5110   49.4120   11.3780 N.ar  200  HIS200     -0.2212
     60  N          6.9960   51.2430   13.1640 N.3   232  GLU232     -0.1245
     61  CA         6.4410   49.9980   12.6650 C.3   232  GLU232      0.1567
     62  C          5.4090   50.2920   11.5910 C.2   232  GLU232      0.2260
     63  O          4.2890   50.7160   11.8860 O.2   232  GLU232     -0.2867
     64  CB         5.7860   49.1700   13.7650 C.3   232  GLU232      0.0388
     65  CG         5.3420   47.7970   13.2530 C.3   232  GLU232      0.1160
     66  CD         3.9640   47.3750   13.7470 C.2   232  GLU232      0.3649
     67  OE1        3.2850   48.1540   14.4460 O.co2 232  GLU232     -0.2457
     68  OE2        3.5570   46.2440   13.4300 O.co2 232  GLU232     -0.2457
     69  N          3.8940   48.3000    8.3560 N.3   234  ILE234     -0.1245
     70  CA         3.8040   47.0760    7.5710 C.3   234  ILE234      0.1561
     71  C          3.4550   47.4430    6.1310 C.2   234  ILE234      0.2260
     72  O          2.3280   47.8310    5.8340 O.2   234  ILE234     -0.2867
     73  CB         2.7270   46.1230    8.1370 C.3   234  ILE234      0.0252
     74  CG1        3.1070   45.6910    9.5570 C.3   234  ILE234      0.0019
     75  CG2        2.5640   44.9090    7.2300 C.3   234  ILE234      0.0019
     76  CD1        2.0690   44.8200   10.2330 C.3   234  ILE234      0.0001
     77  N          5.1630   39.7060   16.3600 N.3   299  ASP299     -0.1239
     78  CA         3.8780   39.5160   15.7020 C.3   299  ASP299      0.1674
     79  C          3.8560   38.3490   14.7150 C.2   299  ASP299      0.2266
     80  O          3.1560   37.3620   14.9270 O.2   299  ASP299     -0.2867
     81  CB         3.4590   40.7810   14.9490 C.3   299  ASP299      0.1410
     82  CG         2.8300   41.8210   15.8450 C.2   299  ASP299      0.3668
     83  OD1        2.1000   41.4490   16.7860 O.co2 299  ASP299     -0.2456
     84  OD2        3.0510   43.0200   15.5900 O.co2 299  ASP299     -0.2456
     85  N          0.5050   36.8370   13.6710 N.3   304  HIS304     -0.1226
     86  CA        -0.1330   38.1370   13.8680 C.3   304  HIS304      0.1752
     87  C          0.4840   39.1810   12.9420 C.2   304  HIS304      0.2596
     88  O          1.4850   38.9120   12.2700 O.2   304  HIS304     -0.2718
     89  CB        -0.0500   38.5800   15.3320 C.3   304  HIS304      0.0759
     90  CG        -1.0290   37.8850   16.2260 C.ar  304  HIS304      0.0818
     91  ND1       -2.0620   38.5460   16.8550 N.ar  304  HIS304     -0.2268
     92  CD2       -1.1500   36.5820   16.5770 C.ar  304  HIS304      0.1154
     93  CE1       -2.7800   37.6820   17.5510 C.ar  304  HIS304      0.1986
     94  NE2       -2.2470   36.4840   17.3990 N.ar  304  HIS304     -0.2212
     95  N         -0.1010   40.3780   12.9290 N.am  305  GLY305     -0.1957
     96  CA         0.3840   41.4310   12.0570 C.3   305  GLY305      0.1869
     97  C          0.0520   41.0320   10.6310 C.2   305  GLY305      0.2309
     98  O         -1.0850   40.6570   10.3410 O.2   305  GLY305     -0.2863
@<TRIPOS>BOND
     1     4     3    2
     2     3     2    1
     3     1     2    1
     4     2     5    1
     5     5     6    1
     6     6     7   ar
     7     6     8   ar
     8    72    71    2
     9     7     9   ar
    10    71    70    1
    11     8    10   ar
    12    49    48    1
    13    48    47    1
    14    75    73    1
    15     9    11   ar
    16    10    11   ar
    17    70    73    1
    18    70    69    1
    19    47    46    1
    20    46    45    1
    21    73    74    1
    22    11    12    1
    23    44    43    2
    24    45    42    1
    25    74    76    1
    26    42    43    1
    27    42    41    1
    28    43    50   am
    29    98    97    2
    30    97    96    1
    31    58    56   ar
    32    58    59   ar
    33    50    51    1
    34    56    55   ar
    35    59    57   ar
    36    62    63    2
    37    62    61    1
    38    51    52    1
    39    51    54    1
    40    96    95    1
    41    55    57   ar
    42    55    54    1
    43    52    53    2
    44    88    87    2
    45    61    60    1
    46    61    64    1
    47    95    87   am
    48    87    86    1
    49    65    66    1
    50    65    64    1
    51    68    66   ar
    52    85    86    1
    53    66    67   ar
    54    86    89    1
    55    39    38    2
    56    20    18    1
    57    38    37    1
    58    18    17    1
    59    18    19    1
    60    37    40    1
    61    37    36    1
    62    79    80    2
    63    79    78    1
    64    14    17    1
    65    14    13    1
    66    14    15    1
    67    81    78    1
    68    81    82    1
    69    26    25    1
    70    21    15   am
    71    21    22    1
    72    89    90    1
    73    84    82   ar
    74    36    30   am
    75    78    77    1
    76    15    16    2
    77    82    83   ar
    78    22    25    1
    79    22    23    1
    80    90    92   ar
    81    90    91   ar
    82    25    27    1
    83    30    31    2
    84    30    29    1
    85    92    94   ar
    86    91    93   ar
    87    23    24    2
    88    94    93   ar
    89    29    28    1
    90    29    32    1
    91    34    33   ar
    92    33    32    1
    93    33    35   ar
