@<TRIPOS>MOLECULE
tmp/1jfhA01.pdb
 112 111 0 0 0
SMALL
GASTEIGER

@<TRIPOS>ATOM
      1  N         -0.2740   37.7630   25.4590 N.3    57  TRP57      -0.1227
      2  CA         0.8100   38.7140   25.2280 C.3    57  TRP57       0.1737
      3  C          0.2480   40.0440   24.7220 C.2    57  TRP57       0.2595
      4  O          0.7620   41.1050   25.0610 O.2    57  TRP57      -0.2718
      5  CB         1.8200   38.1660   24.2090 C.3    57  TRP57       0.0564
      6  CG         1.2270   37.8990   22.8560 C.ar   57  TRP57       0.0003
      7  CD1        0.6340   36.7440   22.4380 C.ar   57  TRP57       0.0946
      8  CD2        1.1190   38.8240   21.7610 C.ar   57  TRP57       0.0152
      9  NE1        0.1530   36.8930   21.1620 N.ar   57  TRP57      -0.2442
     10  CE2        0.4360   38.1590   20.7210 C.ar   57  TRP57       0.0810
     11  CE3        1.5300   40.1520   21.5630 C.ar   57  TRP57       0.0012
     12  CZ2        0.1500   38.7740   19.4920 C.ar   57  TRP57       0.0191
     13  CZ3        1.2450   40.7640   20.3410 C.ar   57  TRP57       0.0001
     14  CH2        0.5610   40.0730   19.3240 C.ar   57  TRP57       0.0015
     15  N         -0.8320   39.9810   23.9440 N.am   58  TRP58      -0.1976
     16  CA        -1.4190   41.1930   23.3780 C.3    58  TRP58       0.1640
     17  C         -2.1620   42.1560   24.2930 C.2    58  TRP58       0.2290
     18  O         -2.5620   43.2330   23.8450 O.2    58  TRP58      -0.2864
     19  CB        -2.2370   40.8920   22.1130 C.3    58  TRP58       0.0576
     20  CG        -3.2080   39.7450   22.1860 C.ar   58  TRP58       0.0006
     21  CD1       -3.0890   38.5380   21.5540 C.ar   58  TRP58       0.0946
     22  CD2       -4.4850   39.7270   22.8420 C.ar   58  TRP58       0.0152
     23  NE1       -4.2150   37.7770   21.7660 N.ar   58  TRP58      -0.2442
     24  CE2       -5.0880   38.4820   22.5530 C.ar   58  TRP58       0.0810
     25  CE3       -5.1810   40.6440   23.6410 C.ar   58  TRP58       0.0012
     26  CZ2       -6.3560   38.1300   23.0320 C.ar   58  TRP58       0.0191
     27  CZ3       -6.4450   40.2930   24.1200 C.ar   58  TRP58       0.0001
     28  CH2       -7.0160   39.0470   23.8110 C.ar   58  TRP58       0.0015
     29  N         -0.8270   45.6900   24.4910 N.3    61  TYR61      -0.1227
     30  CA        -1.0490   46.6400   23.4060 C.3    61  TYR61       0.1736
     31  C         -2.4070   47.3270   23.5730 C.2    61  TYR61       0.2595
     32  O         -3.0030   47.8190   22.6140 O.2    61  TYR61      -0.2718
     33  CB        -0.8790   45.9690   22.0360 C.3    61  TYR61       0.0548
     34  CG         0.5720   45.6350   21.7770 C.ar   61  TYR61      -0.0200
     35  CD1        1.4500   46.5950   21.2690 C.ar   61  TYR61      -0.0009
     36  CD2        1.0950   44.3960   22.1480 C.ar   61  TYR61      -0.0009
     37  CE1        2.8140   46.3350   21.1460 C.ar   61  TYR61       0.0417
     38  CE2        2.4510   44.1230   22.0330 C.ar   61  TYR61       0.0417
     39  CZ         3.3060   45.0950   21.5360 C.ar   61  TYR61       0.1957
     40  OH         4.6490   44.8240   21.4590 O.3    61  TYR61      -0.2866
     41  N         -2.8670   47.3620   24.8230 N.am   62  GLN62      -0.1979
     42  CA        -4.1270   48.0000   25.2030 C.3    62  GLN62       0.1601
     43  C         -3.8470   48.8670   26.4360 C.2    62  GLN62       0.2287
     44  O         -4.1510   48.4800   27.5660 O.2    62  GLN62      -0.2864
     45  CB        -5.1990   46.9530   25.5340 C.3    62  GLN62       0.0394
     46  CG        -5.6080   46.0640   24.3680 C.3    62  GLN62       0.0908
     47  CD        -6.9270   45.3490   24.6150 C.2    62  GLN62       0.2608
     48  OE1       -7.8660   45.9330   25.1490 O.2    62  GLN62      -0.2717
     49  NE2       -7.0030   44.0820   24.2210 N.am   62  GLN62      -0.0878
     50  N         -3.3750   54.2370   20.2050 N.3   100  HIS100     -0.1241
     51  CA        -4.6420   53.9280   20.8450 C.3   100  HIS100      0.1621
     52  C         -4.5280   53.6230   22.3240 C.2   100  HIS100      0.2264
     53  O         -3.4320   53.5820   22.8910 O.2   100  HIS100     -0.2867
     54  CB        -5.2050   52.6760   20.1690 C.3   100  HIS100      0.0745
     55  CG        -4.1960   51.5780   20.0240 C.ar  100  HIS100      0.0817
     56  ND1       -3.9530   50.6480   21.0150 N.ar  100  HIS100     -0.2268
     57  CD2       -3.3220   51.3000   19.0290 C.ar  100  HIS100      0.1154
     58  CE1       -2.9730   49.8500   20.6350 C.ar  100  HIS100      0.1986
     59  NE2       -2.5700   50.2240   19.4340 N.ar  100  HIS100     -0.2212
     60  N         -8.4090   50.3370   15.2090 N.3   161  LEU161     -0.1231
     61  CA        -7.6070   49.1780   14.8400 C.3   161  LEU161      0.1693
     62  C         -8.1110   48.0810   15.7740 C.2   161  LEU161      0.2591
     63  O         -7.9700   48.1960   16.9900 O.2   161  LEU161     -0.2718
     64  CB        -6.1290   49.4550   15.1370 C.3   161  LEU161      0.0284
     65  CG        -5.0140   48.7070   14.3950 C.3   161  LEU161      0.0019
     66  CD1       -3.8040   48.6190   15.3270 C.3   161  LEU161      0.0001
     67  CD2       -5.4400   47.3130   13.9440 C.3   161  LEU161      0.0001
     68  N         -8.7070   47.0330   15.2050 N.am  162  VAL162     -0.1980
     69  CA        -9.2630   45.9070   15.9650 C.3   162  VAL162      0.1595
     70  C        -10.0320   46.3180   17.2250 C.2   162  VAL162      0.2287
     71  O         -9.8340   45.7700   18.3130 O.2   162  VAL162     -0.2864
     72  CB        -8.2050   44.7910   16.2670 C.3   162  VAL162      0.0276
     73  CG1       -7.7720   44.1320   14.9770 C.3   162  VAL162      0.0022
     74  CG2       -6.9930   45.3450   16.9970 C.3   162  VAL162      0.0022
     75  N         -9.7690   49.0340   19.0180 N.3   164  LEU164     -0.1245
     76  CA        -9.0440   49.8120   20.0200 C.3   164  LEU164      0.1561
     77  C         -9.3730   51.3010   19.8680 C.2   164  LEU164      0.2260
     78  O         -9.3930   51.8250   18.7560 O.2   164  LEU164     -0.2867
     79  CB        -7.5360   49.5610   19.8900 C.3   164  LEU164      0.0270
     80  CG        -7.0810   48.1030   20.0970 C.3   164  LEU164      0.0019
     81  CD1       -5.6880   47.8870   19.5380 C.3   164  LEU164      0.0001
     82  CD2       -7.1320   47.7340   21.5660 C.3   164  LEU164      0.0001
     83  N          4.9580   51.9950   17.7540 N.3   196  ASP196     -0.1239
     84  CA         3.9620   50.9780   17.4350 C.3   196  ASP196      0.1674
     85  C          2.8450   51.4950   16.5260 C.2   196  ASP196      0.2266
     86  O          2.4080   52.6400   16.6550 O.2   196  ASP196     -0.2867
     87  CB         3.3650   50.4330   18.7380 C.3   196  ASP196      0.1410
     88  CG         2.2890   49.3910   18.5000 C.2   196  ASP196      0.3668
     89  OD1        2.6210   48.2850   18.0250 O.co2 196  ASP196     -0.2456
     90  OD2        1.1120   49.6870   18.7870 O.co2 196  ASP196     -0.2456
     91  N          5.1630   39.7060   16.3600 N.3   299  ASP299     -0.1239
     92  CA         3.8780   39.5160   15.7020 C.3   299  ASP299      0.1674
     93  C          3.8560   38.3490   14.7150 C.2   299  ASP299      0.2266
     94  O          3.1560   37.3620   14.9270 O.2   299  ASP299     -0.2867
     95  CB         3.4590   40.7810   14.9490 C.3   299  ASP299      0.1410
     96  CG         2.8300   41.8210   15.8450 C.2   299  ASP299      0.3668
     97  OD1        2.1000   41.4490   16.7860 O.co2 299  ASP299     -0.2456
     98  OD2        3.0510   43.0200   15.5900 O.co2 299  ASP299     -0.2456
     99  N          0.5050   36.8370   13.6710 N.3   304  HIS304     -0.1226
    100  CA        -0.1330   38.1370   13.8680 C.3   304  HIS304      0.1752
    101  C          0.4840   39.1810   12.9420 C.2   304  HIS304      0.2596
    102  O          1.4850   38.9120   12.2700 O.2   304  HIS304     -0.2718
    103  CB        -0.0500   38.5800   15.3320 C.3   304  HIS304      0.0759
    104  CG        -1.0290   37.8850   16.2260 C.ar  304  HIS304      0.0818
    105  ND1       -2.0620   38.5460   16.8550 N.ar  304  HIS304     -0.2268
    106  CD2       -1.1500   36.5820   16.5770 C.ar  304  HIS304      0.1154
    107  CE1       -2.7800   37.6820   17.5510 C.ar  304  HIS304      0.1986
    108  NE2       -2.2470   36.4840   17.3990 N.ar  304  HIS304     -0.2212
    109  N         -0.1010   40.3780   12.9290 N.am  305  GLY305     -0.1957
    110  CA         0.3840   41.4310   12.0570 C.3   305  GLY305      0.1869
    111  C          0.0520   41.0320   10.6310 C.2   305  GLY305      0.2309
    112  O         -1.0850   40.6570   10.3410 O.2   305  GLY305     -0.2863
@<TRIPOS>BOND
     1   112   111    2
     2   111   110    1
     3   110   109    1
     4   102   101    2
     5   109   101   am
     6   101   100    1
     7    99   100    1
     8   100   103    1
     9    67    65    1
    10    65    64    1
    11    65    66    1
    12    93    94    2
    13    93    92    1
    14    61    64    1
    15    61    60    1
    16    61    62    1
    17    95    92    1
    18    95    96    1
    19    73    72    1
    20    68    62   am
    21    68    69    1
    22   103   104    1
    23    98    96   ar
    24    92    91    1
    25    62    63    2
    26    96    97   ar
    27    69    72    1
    28    69    70    1
    29   104   106   ar
    30   104   105   ar
    31    72    74    1
    32    85    86    2
    33    85    84    1
    34   106   108   ar
    35   105   107   ar
    36    70    71    2
    37   108   107   ar
    38    84    83    1
    39    84    87    1
    40    89    88   ar
    41    88    87    1
    42    88    90   ar
    43    78    77    2
    44    75    76    1
    45    57    59   ar
    46    57    55   ar
    47    14    12   ar
    48    14    13   ar
    49    59    58   ar
    50    12    10   ar
    51    81    80    1
    52    77    76    1
    53    79    76    1
    54    79    80    1
    55    55    54    1
    56    55    56   ar
    57    80    82    1
    58    54    51    1
    59    50    51    1
    60    13    11   ar
    61    58    56   ar
    62    10     9   ar
    63    10     8   ar
    64    51    52    1
    65    37    35   ar
    66    37    39   ar
    67     9     7   ar
    68    35    34   ar
    69    40    39    1
    70    39    38   ar
    71    21    23   ar
    72    21    20   ar
    73    11     8   ar
    74     8     6   ar
    75    23    24   ar
    76    34    33    1
    77    34    36   ar
    78    38    36   ar
    79    33    30    1
    80    19    20    1
    81    19    16    1
    82    20    22   ar
    83    52    53    2
    84     7     6   ar
    85    24    22   ar
    86    24    26   ar
    87    32    31    2
    88    22    25   ar
    89     6     5    1
    90    26    28   ar
    91    16    15    1
    92    16    17    1
    93    30    31    1
    94    30    29    1
    95    31    41   am
    96    25    27   ar
    97    28    27   ar
    98    18    17    2
    99    15     3   am
   100     5     2    1
   101    49    47   am
   102    46    47    1
   103    46    45    1
   104    47    48    2
   105     3     4    2
   106     3     2    1
   107    41    42    1
   108    42    45    1
   109    42    43    1
   110     2     1    1
   111    43    44    2
