@<TRIPOS>MOLECULE
tmp/1jftB00.pdb
 90 84 0 0 0
SMALL
GASTEIGER

@<TRIPOS>ATOM
      1  N         55.5950   -1.3120   -4.7270 N.3    70  ALA70      -0.1245
      2  CA        56.6370   -0.3900   -5.1630 C.3    70  ALA70       0.1562
      3  C         56.6700    0.8740   -4.2990 C.2    70  ALA70       0.2260
      4  O         55.6600    1.5650   -4.1450 O.2    70  ALA70      -0.2867
      5  CB        56.4130   -0.0340   -6.6340 C.3    70  ALA70       0.0290
      6  N         57.6240    3.8660   -4.5330 N.3    72  TYR72      -0.1227
      7  CA        57.0590    5.0420   -5.1430 C.3    72  TYR72       0.1736
      8  C         55.5040    5.0050   -4.8890 C.2    72  TYR72       0.2595
      9  O         54.9460    5.7830   -4.0850 O.2    72  TYR72      -0.2718
     10  CB        57.4370    5.0230   -6.6310 C.3    72  TYR72       0.0548
     11  CG        56.9220    6.2080   -7.4170 C.ar   72  TYR72      -0.0200
     12  CD1       56.0170    6.0570   -8.4600 C.ar   72  TYR72      -0.0009
     13  CD2       57.3390    7.4840   -7.1120 C.ar   72  TYR72      -0.0009
     14  CE1       55.5620    7.1510   -9.1740 C.ar   72  TYR72       0.0417
     15  CE2       56.8890    8.5790   -7.8170 C.ar   72  TYR72       0.0417
     16  CZ        56.0030    8.4120   -8.8380 C.ar   72  TYR72       0.1957
     17  OH        55.5810    9.5370   -9.5050 O.3    72  TYR72      -0.2866
     18  N         54.8370    4.0710   -5.5380 N.am   73  PHE73      -0.1976
     19  CA        53.4020    3.9110   -5.3930 C.3    73  PHE73       0.1639
     20  C         52.9750    3.8550   -3.9600 C.2    73  PHE73       0.2290
     21  O         52.0770    4.5710   -3.5430 O.2    73  PHE73      -0.2864
     22  CB        52.9850    2.6630   -6.0940 C.3    73  PHE73       0.0560
     23  CG        53.1650    2.7500   -7.5830 C.ar   73  PHE73      -0.0200
     24  CD1       53.5500    1.6410   -8.3210 C.ar   73  PHE73      -0.0042
     25  CD2       52.9570    3.9570   -8.2330 C.ar   73  PHE73      -0.0042
     26  CE1       53.7320    1.7290   -9.6930 C.ar   73  PHE73      -0.0003
     27  CE2       53.1300    4.0500   -9.5960 C.ar   73  PHE73      -0.0003
     28  CZ        53.5300    2.9330  -10.3370 C.ar   73  PHE73      -0.0000
     29  N         49.6830    4.1520  -14.8450 N.3   123  SER123     -0.1217
     30  CA        50.9870    4.1490  -15.5220 C.3   123  SER123      0.1889
     31  C         50.8690    4.2870  -16.9900 C.2   123  SER123      0.2288
     32  O         51.1750    5.3020  -17.5090 O.2   123  SER123     -0.2866
     33  CB        51.7320    2.8500  -15.2140 C.3   123  SER123      0.2089
     34  OG        51.9530    2.7140  -13.8080 O.3   123  SER123     -0.2183
     35  N         55.5110    4.9800  -20.2250 N.3   189  ARG189     -0.1245
     36  CA        55.0070    5.7480  -19.0920 C.3   189  ARG189      0.1563
     37  C         55.5150    7.1790  -19.0380 C.2   189  ARG189      0.2260
     38  O         56.5590    7.5080  -19.6040 O.2   189  ARG189     -0.2867
     39  CB        55.3330    5.0560  -17.7840 C.3   189  ARG189      0.0307
     40  CG        54.5170    3.8790  -17.5720 C.3   189  ARG189      0.0489
     41  CD        55.3820    2.7500  -17.2690 C.3   189  ARG189      0.2205
     42  NE        55.3930    2.5100  -15.8500 N.pl3 189  ARG189     -0.0865
     43  CZ        55.0380    1.3490  -15.3270 C.cat 189  ARG189      0.5346
     44  NH1       54.6440    0.3710  -16.1210 N.pl3 189  ARG189      0.1354
     45  NH2       55.0730    1.1720  -14.0260 N.pl3 189  ARG189      0.1354
     46  N         56.5920    8.9550  -16.3040 N.3   191  THR191     -0.1218
     47  CA        57.8000    8.9310  -15.4990 C.3   191  THR191      0.1862
     48  C         58.9030    8.1600  -16.2390 C.2   191  THR191      0.2287
     49  O         60.0150    8.1180  -15.7800 O.2   191  THR191     -0.2866
     50  CB        57.5590    8.2910  -14.1930 C.3   191  THR191      0.1770
     51  OG1       56.9120    7.0570  -14.4430 O.3   191  THR191     -0.2211
     52  CG2       56.6610    9.1530  -13.3180 C.3   191  THR191      0.0375
     53  N         60.9070   11.6800  -18.1850 N.3   195  ARG195     -0.1245
     54  CA        62.1580   11.9870  -17.5390 C.3   195  ARG195      0.1563
     55  C         63.2980   11.9150  -18.5090 C.2   195  ARG195      0.2260
     56  O         64.1450   12.7690  -18.5270 O.2   195  ARG195     -0.2867
     57  CB        62.3610   11.0610  -16.3430 C.3   195  ARG195      0.0307
     58  CG        61.2370   11.2530  -15.2610 C.3   195  ARG195      0.0489
     59  CD        61.2920   10.2250  -14.1240 C.3   195  ARG195      0.2205
     60  NE        60.2570   10.4710  -13.1320 N.pl3 195  ARG195     -0.0865
     61  CZ        60.1120    9.7520  -12.0270 C.cat 195  ARG195      0.5346
     62  NH1       60.9370    8.7490  -11.8020 N.pl3 195  ARG195      0.1354
     63  NH2       59.1420   10.0280  -11.1500 N.pl3 195  ARG195      0.1354
     64  N         61.7810   -0.0160  -13.6320 N.3   220  PHE220     -0.1241
     65  CA        61.5490    0.5110  -12.2630 C.3   220  PHE220      0.1605
     66  C         61.8020   -0.5070  -11.1880 C.2   220  PHE220      0.2264
     67  O         61.6370   -0.1930  -10.0250 O.2   220  PHE220     -0.2867
     68  CB        60.1380    1.0910  -12.0640 C.3   220  PHE220      0.0534
     69  CG        59.9430    2.3670  -12.7380 C.ar  220  PHE220     -0.0203
     70  CD1       60.6970    3.4650  -12.3690 C.ar  220  PHE220     -0.0042
     71  CD2       59.0310    2.4790  -13.7880 C.ar  220  PHE220     -0.0042
     72  CE1       60.5400    4.6620  -13.0100 C.ar  220  PHE220     -0.0003
     73  CE2       58.8520    3.6930  -14.4360 C.ar  220  PHE220     -0.0003
     74  CZ        59.6110    4.7850  -14.0420 C.ar  220  PHE220     -0.0000
     75  N         64.5000    3.1110   -6.8820 N.3   248  ILE248     -0.1245
     76  CA        64.5410    1.6940   -6.6290 C.3   248  ILE248      0.1561
     77  C         65.3970    1.0090   -7.7020 C.2   248  ILE248      0.2260
     78  O         66.1180    0.0800   -7.4230 O.2   248  ILE248     -0.2867
     79  CB        63.1270    1.0910   -6.5390 C.3   248  ILE248      0.0252
     80  CG1       62.3830    1.7200   -5.3720 C.3   248  ILE248      0.0019
     81  CG2       63.2040   -0.4200   -6.3000 C.3   248  ILE248      0.0019
     82  CD1       63.2330    1.7570   -4.1470 C.3   248  ILE248      0.0001
     83  N         63.0500   10.2170   -7.8390 N.3   274  ASP274     -0.1239
     84  CA        61.8580    9.9450   -6.9830 C.3   274  ASP274      0.1674
     85  C         61.9940   10.4170   -5.5610 C.2   274  ASP274      0.2266
     86  O         61.0610   10.9370   -4.9400 O.2   274  ASP274     -0.2867
     87  CB        61.4320    8.4870   -6.9290 C.3   274  ASP274      0.1410
     88  CG        60.6670    8.0080   -8.1650 C.2   274  ASP274      0.3668
     89  OD1       60.3510    6.7840   -8.1450 O.co2 274  ASP274     -0.2456
     90  OD2       60.4210    8.7900   -9.1530 O.co2 274  ASP274     -0.2456
@<TRIPOS>BOND
     1    35    36    1
     2    38    37    2
     3    36    37    1
     4    36    39    1
     5    56    55    2
     6    55    54    1
     7    53    54    1
     8    39    40    1
     9    40    41    1
    10    54    57    1
    11    32    31    2
    12    41    42    1
    13    31    30    1
    14    57    58    1
    15    46    47    1
    16    48    49    2
    17    48    47    1
    18    44    43    1
    19    42    43    2
    20    30    33    1
    21    30    29    1
    22    47    50    1
    23    43    45    1
    24    58    59    1
    25    33    34    1
    26    51    50    1
    27    73    74   ar
    28    73    71   ar
    29    50    52    1
    30    59    60    1
    31    74    72   ar
    32    71    69   ar
    33    64    65    1
    34    60    61    2
    35    72    70   ar
    36    69    70   ar
    37    69    68    1
    38    65    68    1
    39    65    66    1
    40    61    62    1
    41    61    63    1
    42    66    67    2
    43    28    26   ar
    44    28    27   ar
    45    26    24   ar
    46    27    25   ar
    47    17    16    1
    48    14    16   ar
    49    14    12   ar
    50    90    88   ar
    51    16    15   ar
    52    12    11   ar
    53    24    23   ar
    54    25    23   ar
    55    88    89   ar
    56    88    87    1
    57    83    84    1
    58    15    13   ar
    59    77    78    2
    60    77    76    1
    61    23    22    1
    62    11    13   ar
    63    11    10    1
    64    84    87    1
    65    84    85    1
    66    75    76    1
    67     5     2    1
    68    10     7    1
    69    76    79    1
    70    79    81    1
    71    79    80    1
    72    22    19    1
    73    85    86    2
    74    18    19    1
    75    18     8   am
    76    19    20    1
    77    80    82    1
    78     2     1    1
    79     2     3    1
    80     7     8    1
    81     7     6    1
    82     8     9    2
    83     3     4    2
    84    20    21    2
