@<TRIPOS>MOLECULE
tmp/1jg0A01.pdb
 186 181 0 0 0
SMALL
GASTEIGER

@<TRIPOS>ATOM
      1  N          4.3550   42.7140   34.3150 N.3    50  HIS50      -0.1241
      2  CA         4.5000   44.0810   34.8230 C.3    50  HIS50       0.1621
      3  C          5.1970   44.9400   33.7750 C.2    50  HIS50       0.2264
      4  O          6.1240   44.4740   33.1020 O.2    50  HIS50      -0.2867
      5  CB         5.3330   44.0720   36.1000 C.3    50  HIS50       0.0745
      6  CG         4.7930   43.1690   37.1640 C.ar   50  HIS50       0.0817
      7  ND1        3.7700   43.5440   38.0090 N.ar   50  HIS50      -0.2268
      8  CD2        5.1210   41.8990   37.5070 C.ar   50  HIS50       0.1154
      9  CE1        3.4940   42.5450   38.8290 C.ar   50  HIS50       0.1986
     10  NE2        4.2980   41.5360   38.5450 N.ar   50  HIS50      -0.2212
     11  N          9.5120   47.9910   34.2810 N.3    53  SER53      -0.1202
     12  CA        10.8100   47.9650   33.6250 C.3    53  SER53       0.2020
     13  C         10.7690   48.3430   32.1390 C.2    53  SER53       0.2618
     14  O         11.6550   49.0440   31.6470 O.2    53  SER53      -0.2717
     15  CB        11.4330   46.5800   33.7970 C.3    53  SER53       0.2103
     16  OG        11.6210   46.3080   35.1740 O.3    53  SER53      -0.2182
     17  N          9.7430   47.8660   31.4360 N.am   54  ILE54      -0.1979
     18  CA         9.5400   48.1430   30.0100 C.3    54  ILE54       0.1595
     19  C          9.3660   49.6380   29.7110 C.2    54  ILE54       0.2287
     20  O          9.9420   50.1710   28.7460 O.2    54  ILE54      -0.2864
     21  CB         8.2900   47.3540   29.4940 C.3    54  ILE54       0.0276
     22  CG1        8.6650   45.8870   29.3430 C.3    54  ILE54       0.0022
     23  CG2        7.7470   47.9400   28.2180 C.3    54  ILE54       0.0022
     24  CD1       10.0430   45.6810   28.7710 C.3    54  ILE54       0.0001
     25  N         12.6270   51.3580   30.2780 N.3    57  GLU57      -0.1245
     26  CA        13.5390   51.0280   29.1940 C.3    57  GLU57       0.1567
     27  C         13.1950   51.7830   27.9150 C.2    57  GLU57       0.2260
     28  O         14.0920   52.2510   27.2260 O.2    57  GLU57      -0.2867
     29  CB        13.5540   49.5190   28.9210 C.3    57  GLU57       0.0388
     30  CG        14.5830   49.1240   27.8570 C.3    57  GLU57       0.1160
     31  CD        14.4020   47.7020   27.3640 C.2    57  GLU57       0.3649
     32  OE1       13.2410   47.3000   27.1140 O.co2  57  GLU57      -0.2457
     33  OE2       15.4140   46.9940   27.2100 O.co2  57  GLU57      -0.2457
     34  N         16.8130   46.2170   36.1210 N.3    77  THR77      -0.1203
     35  CA        17.9700   45.3600   35.9430 C.3    77  THR77       0.1994
     36  C         18.1790   44.7290   34.5730 C.2    77  THR77       0.2618
     37  O         19.1770   44.0440   34.3620 O.2    77  THR77      -0.2717
     38  CB        17.9360   44.2300   36.9980 C.3    77  THR77       0.1784
     39  OG1       16.7080   43.4960   36.8730 O.3    77  THR77      -0.2211
     40  CG2       18.0260   44.8210   38.4110 C.3    77  THR77       0.0376
     41  N         17.2570   44.9650   33.6490 N.am   78  ILE78      -0.1965
     42  CA        17.3350   44.3820   32.3070 C.3    78  ILE78       0.1727
     43  C         18.7190   44.2500   31.6730 C.2    78  ILE78       0.2616
     44  O         19.0680   43.1920   31.1550 O.2    78  ILE78      -0.2715
     45  CB        16.4660   45.1660   31.3090 C.3    78  ILE78       0.0290
     46  CG1       15.0010   45.0960   31.7240 C.3    78  ILE78       0.0022
     47  CG2       16.6520   44.5960   29.8940 C.3    78  ILE78       0.0023
     48  CD1       14.1240   46.0500   30.9430 C.3    78  ILE78       0.0001
     49  N         19.4920   45.3320   31.6870 N.am   79  TRP79      -0.1974
     50  CA        20.8100   45.3200   31.0670 C.3    79  TRP79       0.1640
     51  C         21.9790   45.1890   32.0320 C.2    79  TRP79       0.2290
     52  O         23.1330   45.0900   31.5980 O.2    79  TRP79      -0.2864
     53  CB        20.9990   46.5840   30.2240 C.3    79  TRP79       0.0576
     54  CG        20.0520   46.6870   29.0520 C.ar   79  TRP79       0.0006
     55  CD1       18.7760   47.1790   29.0600 C.ar   79  TRP79       0.0946
     56  CD2       20.3160   46.2810   27.7050 C.ar   79  TRP79       0.0152
     57  NE1       18.2290   47.1100   27.7950 N.ar   79  TRP79      -0.2442
     58  CE2       19.1520   46.5610   26.9470 C.ar   79  TRP79       0.0810
     59  CE3       21.4220   45.7080   27.0640 C.ar   79  TRP79       0.0012
     60  CZ2       19.0690   46.2840   25.5760 C.ar   79  TRP79       0.0191
     61  CZ3       21.3370   45.4340   25.7020 C.ar   79  TRP79       0.0001
     62  CH2       20.1650   45.7240   24.9730 C.ar   79  TRP79       0.0015
     63  N         23.4070   42.8930   33.6400 N.3    81  GLU81      -0.1231
     64  CA        24.3270   41.8290   33.2700 C.3    81  GLU81       0.1699
     65  C         25.2560   42.1310   32.0930 C.2    81  GLU81       0.2592
     66  O         26.2700   41.4520   31.9130 O.2    81  GLU81      -0.2718
     67  CB        23.5160   40.5700   32.9580 C.3    81  GLU81       0.0402
     68  CG        24.3260   39.3330   32.6240 C.3    81  GLU81       0.1161
     69  CD        23.4560   38.2200   32.0660 C.2    81  GLU81       0.3649
     70  OE1       22.2820   38.1210   32.4860 O.co2  81  GLU81      -0.2457
     71  OE2       23.9450   37.4410   31.2150 O.co2  81  GLU81      -0.2457
     72  N         24.9320   43.1490   31.3010 N.am   82  TRP82      -0.1976
     73  CA        25.7390   43.4430   30.1220 C.3    82  TRP82       0.1640
     74  C         26.5630   44.7180   30.1290 C.2    82  TRP82       0.2290
     75  O         27.4800   44.8470   29.3290 O.2    82  TRP82      -0.2864
     76  CB        24.8360   43.4320   28.8820 C.3    82  TRP82       0.0576
     77  CG        23.9370   42.2410   28.8460 C.ar   82  TRP82       0.0006
     78  CD1       22.6210   42.1900   29.2140 C.ar   82  TRP82       0.0946
     79  CD2       24.3140   40.9030   28.5240 C.ar   82  TRP82       0.0152
     80  NE1       22.1580   40.8960   29.1480 N.ar   82  TRP82      -0.2442
     81  CE2       23.1790   40.0860   28.7280 C.ar   82  TRP82       0.0810
     82  CE3       25.5060   40.3120   28.0870 C.ar   82  TRP82       0.0012
     83  CZ2       23.2010   38.7070   28.5090 C.ar   82  TRP82       0.0191
     84  CZ3       25.5300   38.9400   27.8700 C.ar   82  TRP82       0.0001
     85  CH2       24.3820   38.1520   28.0830 C.ar   82  TRP82       0.0015
     86  N         25.1940   43.3860   22.9930 N.3   142  LEU142     -0.1245
     87  CA        24.3530   42.3070   22.4820 C.3   142  LEU142      0.1561
     88  C         23.8270   42.6870   21.0980 C.2   142  LEU142      0.2260
     89  O         23.5430   43.8600   20.8580 O.2   142  LEU142     -0.2867
     90  CB        23.1740   42.0530   23.4310 C.3   142  LEU142      0.0270
     91  CG        23.4600   41.4060   24.7930 C.3   142  LEU142      0.0019
     92  CD1       22.2400   41.5370   25.6830 C.3   142  LEU142      0.0001
     93  CD2       23.8310   39.9350   24.6100 C.3   142  LEU142      0.0001
     94  N         17.8100   42.4270   19.0340 N.3   145  CYS145     -0.1221
     95  CA        16.8090   41.4100   18.7310 C.3   145  CYS145      0.1808
     96  C         15.6500   42.0750   17.9840 C.2   145  CYS145      0.2601
     97  O         15.2650   41.6140   16.9090 O.2   145  CYS145     -0.2717
     98  CB        16.3260   40.7190   20.0050 C.3   145  CYS145      0.0970
     99  SG        17.4400   39.3890   20.5370 S.3   145  CYS145     -0.0800
    100  N         15.0760   43.1390   18.5420 N.am  146  HIS146     -0.1975
    101  CA        14.0140   43.8270   17.8140 C.3   146  HIS146      0.1656
    102  C         14.7750   44.8230   16.9420 C.2   146  HIS146      0.2291
    103  O         14.9800   45.9740   17.3140 O.2   146  HIS146     -0.2864
    104  CB        12.9690   44.4820   18.7590 C.3   146  HIS146      0.0771
    105  CG        13.5220   45.1260   20.0000 C.ar  146  HIS146      0.0820
    106  ND1       13.6090   46.4940   20.1530 N.ar  146  HIS146     -0.2267
    107  CD2       13.8960   44.5980   21.1920 C.ar  146  HIS146      0.1154
    108  CE1       14.0030   46.7820   21.3820 C.ar  146  HIS146      0.1986
    109  NE2       14.1840   45.6470   22.0320 N.ar  146  HIS146     -0.2212
    110  N         12.1600   34.5910   22.3430 N.3   168  ASP168     -0.1239
    111  CA        11.8990   33.6250   23.4040 C.3   168  ASP168      0.1674
    112  C         10.4090   33.8790   23.6470 C.2   168  ASP168      0.2266
    113  O         10.0440   34.8510   24.3110 O.2   168  ASP168     -0.2867
    114  CB        12.7110   33.9810   24.6570 C.3   168  ASP168      0.1410
    115  CG        12.3530   33.1120   25.8480 C.2   168  ASP168      0.3668
    116  OD1       11.2330   32.5620   25.8640 O.co2 168  ASP168     -0.2456
    117  OD2       13.1830   32.9890   26.7740 O.co2 168  ASP168     -0.2456
    118  N          9.3140   33.9130   27.7260 N.3   171  LEU171     -0.1231
    119  CA         9.8710   34.9870   28.5400 C.3   171  LEU171      0.1693
    120  C          9.9620   36.3700   27.9110 C.2   171  LEU171      0.2592
    121  O          9.6100   37.3680   28.5320 O.2   171  LEU171     -0.2718
    122  CB        11.2660   34.5740   29.0100 C.3   171  LEU171      0.0284
    123  CG        11.6090   34.7290   30.4880 C.3   171  LEU171      0.0019
    124  CD1       10.4680   34.1890   31.3590 C.3   171  LEU171      0.0001
    125  CD2       12.9120   33.9860   30.7620 C.3   171  LEU171      0.0001
    126  N         10.4410   36.4350   26.6790 N.am  172  GLY172     -0.1957
    127  CA        10.6190   37.7330   26.0610 C.3   172  GLY172      0.1869
    128  C          9.4650   38.3880   25.3330 C.2   172  GLY172      0.2309
    129  O          9.1680   39.5580   25.5800 O.2   172  GLY172     -0.2863
    130  N          6.8930   41.0230   26.8340 N.3   175  PHE175     -0.1227
    131  CA         7.4350   42.3540   27.0640 C.3   175  PHE175      0.1736
    132  C          7.6940   43.0720   25.7440 C.2   175  PHE175      0.2595
    133  O          7.4540   44.2790   25.6270 O.2   175  PHE175     -0.2718
    134  CB         8.7110   42.2470   27.8910 C.3   175  PHE175      0.0547
    135  CG         8.4870   41.6540   29.2420 C.ar  175  PHE175     -0.0202
    136  CD1        9.1530   40.4950   29.6310 C.ar  175  PHE175     -0.0042
    137  CD2        7.6090   42.2570   30.1390 C.ar  175  PHE175     -0.0042
    138  CE1        8.9450   39.9510   30.8970 C.ar  175  PHE175     -0.0003
    139  CE2        7.3940   41.7210   31.4030 C.ar  175  PHE175     -0.0003
    140  CZ         8.0620   40.5670   31.7830 C.ar  175  PHE175     -0.0000
    141  N          8.1750   42.3270   24.7490 N.am  176  ASN176     -0.1974
    142  CA         8.4380   42.8970   23.4380 C.3   176  ASN176      0.1688
    143  C          7.1580   43.4890   22.8240 C.2   176  ASN176      0.2292
    144  O          7.1780   44.5750   22.2680 O.2   176  ASN176     -0.2864
    145  CB         9.0300   41.8110   22.5350 C.3   176  ASN176      0.1181
    146  CG        10.3960   41.3320   23.0290 C.2   176  ASN176      0.2629
    147  OD1       10.8400   40.2350   22.7030 O.2   176  ASN176     -0.2716
    148  ND2       11.0630   42.1680   23.8200 N.am  176  ASN176     -0.0877
    149  N         11.9700   27.6230   24.8360 N.3   208  TYR208     -0.1241
    150  CA        13.0750   26.8890   25.4480 C.3   208  TYR208      0.1605
    151  C         12.5850   25.5820   26.0760 C.2   208  TYR208      0.2264
    152  O         11.4630   25.5010   26.5740 O.2   208  TYR208     -0.2867
    153  CB        13.7620   27.7560   26.4980 C.3   208  TYR208      0.0534
    154  CG        14.7330   28.7520   25.9090 C.ar  208  TYR208     -0.0201
    155  CD1       16.0010   28.3500   25.4970 C.ar  208  TYR208     -0.0009
    156  CD2       14.3790   30.0950   25.7380 C.ar  208  TYR208     -0.0009
    157  CE1       16.8990   29.2570   24.9280 C.ar  208  TYR208      0.0417
    158  CE2       15.2660   31.0080   25.1690 C.ar  208  TYR208      0.0417
    159  CZ        16.5260   30.5800   24.7620 C.ar  208  TYR208      0.1957
    160  OH        17.4020   31.4570   24.1570 O.3   208  TYR208     -0.2866
    161  N          6.5040   31.8490   37.2040 N.3   258  LYS258     -0.1231
    162  CA         7.9480   32.0570   37.2640 C.3   258  LYS258      0.1693
    163  C          8.6610   31.0710   36.3430 C.2   258  LYS258      0.2591
    164  O          8.1640   29.9740   36.0850 O.2   258  LYS258     -0.2718
    165  CB         8.4550   31.8890   38.6990 C.3   258  LYS258      0.0285
    166  CG         8.2260   33.1080   39.5950 C.3   258  LYS258      0.0035
    167  CD         9.0400   34.3160   39.1100 C.3   258  LYS258      0.0206
    168  CE         8.9500   35.5270   40.0560 C.3   258  LYS258      0.1093
    169  NZ         7.6090   36.1810   40.0920 N.3   258  LYS258     -0.1314
    170  N          9.8250   31.4500   35.8350 N.am  259  ALA259     -0.1980
    171  CA        10.5530   30.5430   34.9580 C.3   259  ALA259      0.1597
    172  C         12.0110   30.9180   34.8880 C.2   259  ALA259      0.2287
    173  O         12.3630   32.0870   35.0230 O.2   259  ALA259     -0.2864
    174  CB         9.9490   30.5550   33.5640 C.3   259  ALA259      0.0319
    175  N         15.6560   31.7110   33.2540 N.3   261  VAL261     -0.1231
    176  CA        16.1260   32.3570   32.0320 C.3   261  VAL261      0.1692
    177  C         17.3590   31.6460   31.4710 C.2   261  VAL261      0.2591
    178  O         18.2430   31.2270   32.2220 O.2   261  VAL261     -0.2718
    179  CB        16.4660   33.8540   32.2870 C.3   261  VAL261      0.0266
    180  CG1       17.5690   33.9770   33.3380 C.3   261  VAL261      0.0020
    181  CG2       16.8850   34.5230   30.9830 C.3   261  VAL261      0.0020
    182  N         17.4080   31.5070   30.1490 N.am  262  ALA262     -0.1980
    183  CA        18.5340   30.8490   29.4980 C.3   262  ALA262      0.1597
    184  C         19.7420   31.7810   29.4760 C.2   262  ALA262      0.2287
    185  O         19.5460   32.9990   29.6780 O.2   262  ALA262     -0.2864
    186  CB        18.1540   30.4490   28.0760 C.3   262  ALA262      0.0319
@<TRIPOS>BOND
     1    97    96    2
     2   102   103    2
     3   102   101    1
     4   101   100    1
     5   101   104    1
     6    96   100   am
     7    96    95    1
     8    95    94    1
     9    95    98    1
    10   104   105    1
    11   105   106   ar
    12   105   107   ar
    13    98    99    1
    14   106   108   ar
    15    89    88    2
    16    88    87    1
    17   107   109   ar
    18   108   109   ar
    19   144   143    2
    20   110   111    1
    21    87    86    1
    22    87    90    1
    23   145   146    1
    24   145   142    1
    25   147   146    2
    26   143   142    1
    27   146   148   am
    28   111   112    1
    29   111   114    1
    30    90    91    1
    31   142   141    1
    32   112   113    2
    33   160   159    1
    34    93    91    1
    35   114   115    1
    36   141   132   am
    37   159   157   ar
    38   159   158   ar
    39    91    92    1
    40   149   150    1
    41   157   155   ar
    42    62    60   ar
    43    62    61   ar
    44   158   156   ar
    45   128   129    2
    46   128   127    1
    47   150   151    1
    48   150   153    1
    49   155   154   ar
    50    60    58   ar
    51   133   132    2
    52    61    59   ar
    53   156   154   ar
    54   132   131    1
    55   115   116   ar
    56   115   117   ar
    57   154   153    1
    58   127   126    1
    59   151   152    2
    60   126   120   am
    61   130   131    1
    62    58    56   ar
    63    58    57   ar
    64    59    56   ar
    65   131   134    1
    66    32    31   ar
    67    33    31   ar
    68    28    27    2
    69    31    30    1
    70    56    54   ar
    71   118   119    1
    72    57    55   ar
    73    30    29    1
    74    84    85   ar
    75    84    82   ar
    76   134   135    1
    77   120   121    2
    78   120   119    1
    79    27    26    1
    80   186   183    1
    81    85    83   ar
    82    82    79   ar
    83    23    21    1
    84    83    81   ar
    85    79    81   ar
    86    79    77   ar
    87   119   122    1
    88    81    80   ar
    89    20    19    2
    90    24    22    1
    91    77    76    1
    92    77    78   ar
    93    76    73    1
    94    29    26    1
    95   122   123    1
    96    54    55   ar
    97    54    53    1
    98    80    78   ar
    99    26    25    1
   100   135   136   ar
   101   135   137   ar
   102    75    74    2
   103    22    21    1
   104   184   183    1
   105   184   185    2
   106    21    18    1
   107   183   182    1
   108   136   138   ar
   109    19    18    1
   110    47    45    1
   111    18    17    1
   112    73    74    1
   113    73    72    1
   114   137   139   ar
   115   182   177   am
   116    53    50    1
   117   123   125    1
   118   123   124    1
   119   138   140   ar
   120    48    46    1
   121   181   179    1
   122    50    49    1
   123    50    51    1
   124    44    43    2
   125    71    69   ar
   126    72    65   am
   127    45    46    1
   128    45    42    1
   129   139   140   ar
   130    17    13   am
   131   177   176    1
   132   177   178    2
   133    52    51    2
   134    14    13    2
   135    43    49   am
   136    43    42    1
   137    66    65    2
   138   176   179    1
   139   176   175    1
   140    69    70   ar
   141    69    68    1
   142    65    64    1
   143    13    12    1
   144   179   180    1
   145    42    41    1
   146    68    67    1
   147    67    64    1
   148     4     3    2
   149    64    63    1
   150   174   171    1
   151    12    15    1
   152    12    11    1
   153    41    36   am
   154     3     2    1
   155    15    16    1
   156     1     2    1
   157    37    36    2
   158    36    35    1
   159     2     5    1
   160   172   171    1
   161   172   173    2
   162   171   170    1
   163   170   163   am
   164    35    34    1
   165    35    38    1
   166   164   163    2
   167     5     6    1
   168   163   162    1
   169    39    38    1
   170    38    40    1
   171     6     8   ar
   172     6     7   ar
   173   161   162    1
   174   162   165    1
   175     8    10   ar
   176     7     9   ar
   177    10     9   ar
   178   165   166    1
   179   167   166    1
   180   167   168    1
   181   168   169    1
