@<TRIPOS>MOLECULE
tmp/1jg3B01.pdb
 145 137 0 0 0
SMALL
GASTEIGER

@<TRIPOS>ATOM
      1  N         73.7970   11.7770   30.4630 N.3    59  GLN59      -0.1231
      2  CA        73.6260   13.0490   31.1490 C.3    59  GLN59       0.1698
      3  C         72.2500   13.6160   30.8130 C.2    59  GLN59       0.2592
      4  O         71.4540   12.9670   30.1340 O.2    59  GLN59      -0.2718
      5  CB        74.7300   14.0290   30.7430 C.3    59  GLN59       0.0381
      6  CG        76.1320   13.5170   31.0450 C.3    59  GLN59       0.0905
      7  CD        76.3210   13.1560   32.5070 C.2    59  GLN59       0.2608
      8  OE1       76.9140   12.1260   32.8300 O.2    59  GLN59      -0.2717
      9  NE2       75.8230   14.0020   33.3980 N.am   59  GLN59      -0.0878
     10  N         71.9700   14.8230   31.2940 N.am   60  THR60      -0.1953
     11  CA        70.6790   15.4600   31.0440 C.3    60  THR60       0.1897
     12  C         70.8180   16.9640   30.8690 C.2    60  THR60       0.2313
     13  O         71.7960   17.5650   31.3070 O.2    60  THR60      -0.2863
     14  CB        69.7080   15.2680   32.2290 C.3    60  THR60       0.1794
     15  OG1       70.2480   15.9210   33.3850 O.3    60  THR60      -0.2208
     16  CG2       69.4990   13.7950   32.5410 C.3    60  THR60       0.0378
     17  N         69.1500   20.3710   31.9750 N.3    62  SER62      -0.1217
     18  CA        68.3040   20.7630   33.1000 C.3    62  SER62       0.1889
     19  C         66.9070   21.2390   32.7220 C.2    62  SER62       0.2288
     20  O         66.6320   21.5760   31.5700 O.2    62  SER62      -0.2866
     21  CB        68.9940   21.8590   33.9240 C.3    62  SER62       0.2089
     22  OG        70.2850   21.4540   34.3440 O.3    62  SER62      -0.2183
     23  N         80.5810   25.2190   34.3650 N.3    85  VAL85      -0.1231
     24  CA        81.1680   23.9030   34.5690 C.3    85  VAL85       0.1692
     25  C         80.0760   22.8680   34.2730 C.2    85  VAL85       0.2592
     26  O         79.0880   22.7680   34.9980 O.2    85  VAL85      -0.2718
     27  CB        81.6860   23.7130   36.0120 C.3    85  VAL85       0.0266
     28  CG1       82.1620   22.2780   36.2010 C.3    85  VAL85       0.0020
     29  CG2       82.8350   24.6810   36.2900 C.3    85  VAL85       0.0020
     30  N         80.2560   22.1260   33.1880 N.am   86  GLY86      -0.1957
     31  CA        79.2900   21.1170   32.7990 C.3    86  GLY86       0.1869
     32  C         78.4780   21.5660   31.5990 C.2    86  GLY86       0.2309
     33  O         77.2820   21.8290   31.7120 O.2    86  GLY86      -0.2863
     34  N         77.3190   19.9680   28.8510 N.3    88  GLY88      -0.1225
     35  CA        76.1730   19.1560   28.4840 C.3    88  GLY88       0.1811
     36  C         75.7200   19.4230   27.0570 C.2    88  GLY88       0.2280
     37  O         76.4690   19.2000   26.1010 O.2    88  GLY88      -0.2866
     38  N         83.1750   24.2240   30.2680 N.3   107  ILE107     -0.1231
     39  CA        83.9750   23.0090   30.2360 C.3   107  ILE107      0.1692
     40  C         83.1410   21.7520   30.4740 C.2   107  ILE107      0.2592
     41  O         82.1790   21.7610   31.2500 O.2   107  ILE107     -0.2718
     42  CB        85.1410   23.1530   31.2570 C.3   107  ILE107      0.0266
     43  CG1       86.0770   21.9460   31.2010 C.3   107  ILE107      0.0019
     44  CG2       84.5840   23.3970   32.6480 C.3   107  ILE107      0.0020
     45  CD1       87.3580   22.1640   32.0070 C.3   107  ILE107      0.0001
     46  N         83.5100   20.6790   29.7760 N.am  108  GLU108     -0.1966
     47  CA        82.8000   19.4010   29.8470 C.3   108  GLU108      0.1733
     48  C         83.8250   18.2720   29.8810 C.2   108  GLU108      0.2616
     49  O         84.7840   18.2770   29.1070 O.2   108  GLU108     -0.2715
     50  CB        81.8810   19.2670   28.6210 C.3   108  GLU108      0.0429
     51  CG        81.2860   17.8760   28.3750 C.3   108  GLU108      0.1163
     52  CD        80.3660   17.4140   29.4910 C.2   108  GLU108      0.3649
     53  OE1       79.3690   18.1120   29.7770 O.co2 108  GLU108     -0.2457
     54  OE2       80.6410   16.3460   30.0830 O.co2 108  GLU108     -0.2457
     55  N         83.6230   17.3080   30.7750 N.am  109  ARG109     -0.1963
     56  CA        84.5630   16.1960   30.9190 C.3   109  ARG109      0.1729
     57  C         84.3730   15.0350   29.9460 C.2   109  ARG109      0.2616
     58  O         85.2810   14.2230   29.7730 O.2   109  ARG109     -0.2715
     59  CB        84.5210   15.6500   32.3530 C.3   109  ARG109      0.0348
     60  CG        83.2120   14.9670   32.7380 C.3   109  ARG109      0.0492
     61  CD        83.2670   14.4500   34.1740 C.3   109  ARG109      0.2205
     62  NE        84.1520   13.2980   34.3200 N.pl3 109  ARG109     -0.0865
     63  CZ        83.7690   12.0360   34.1480 C.cat 109  ARG109      0.5346
     64  NH1       82.5100   11.7580   33.8280 N.pl3 109  ARG109      0.1354
     65  NH2       84.6450   11.0510   34.2920 N.pl3 109  ARG109      0.1354
     66  N         83.2060   14.9460   29.3210 N.am  110  ILE110     -0.1977
     67  CA        82.9290   13.8560   28.3880 C.3   110  ILE110      0.1596
     68  C         83.0960   14.3100   26.9350 C.2   110  ILE110      0.2287
     69  O         82.3630   15.1750   26.4610 O.2   110  ILE110     -0.2864
     70  CB        81.4950   13.3070   28.6000 C.3   110  ILE110      0.0276
     71  CG1       81.3240   12.8530   30.0520 C.3   110  ILE110      0.0022
     72  CG2       81.2300   12.1360   27.6630 C.3   110  ILE110      0.0022
     73  CD1       79.9270   12.3470   30.3850 C.3   110  ILE110      0.0001
     74  N         80.1210   14.6890   24.6200 N.3   113  LEU113     -0.1245
     75  CA        79.2680   15.8400   24.9030 C.3   113  LEU113      0.1561
     76  C         79.9310   17.1460   24.4680 C.2   113  LEU113      0.2260
     77  O         79.2500   18.1240   24.1610 O.2   113  LEU113     -0.2867
     78  CB        78.8870   15.8740   26.3880 C.3   113  LEU113      0.0270
     79  CG        77.8660   14.7810   26.7460 C.3   113  LEU113      0.0019
     80  CD1       77.4880   14.8640   28.2160 C.3   113  LEU113      0.0001
     81  CD2       76.6210   14.9390   25.8720 C.3   113  LEU113      0.0001
     82  N         87.6240   18.8010   29.6760 N.3   134  GLY134     -0.1210
     83  CA        88.3980   18.7250   30.8980 C.3   134  GLY134      0.1956
     84  C         87.5740   18.5960   32.1650 C.2   134  GLY134      0.2612
     85  O         86.3430   18.5710   32.1310 O.2   134  GLY134     -0.2717
     86  N         88.2780   18.5240   33.2870 N.am  135  ASP135     -0.1959
     87  CA        87.6740   18.3910   34.6050 C.3   135  ASP135      0.1840
     88  C         87.3970   19.7830   35.1710 C.2   135  ASP135      0.2623
     89  O         88.2920   20.4320   35.7140 O.2   135  ASP135     -0.2715
     90  CB        88.6370   17.6180   35.5120 C.3   135  ASP135      0.1450
     91  CG        88.1210   17.4550   36.9260 C.2   135  ASP135      0.3671
     92  OD1       87.0310   17.9810   37.2520 O.co2 135  ASP135     -0.2456
     93  OD2       88.8230   16.7930   37.7200 O.co2 135  ASP135     -0.2456
     94  N         86.1520   20.2300   35.0280 N.am  136  GLY136     -0.1940
     95  CA        85.7530   21.5420   35.5070 C.3   136  GLY136      0.2014
     96  C         85.7560   21.7430   37.0130 C.2   136  GLY136      0.2639
     97  O         85.6030   22.8750   37.4840 O.2   136  GLY136     -0.2714
     98  N         85.9210   20.6710   37.7850 N.am  137  SER137     -0.1949
     99  CA        85.9470   20.8330   39.2380 C.3   137  SER137      0.1924
    100  C         87.2260   21.5900   39.5940 C.2   137  SER137      0.2314
    101  O         87.3800   22.0920   40.7100 O.2   137  SER137     -0.2863
    102  CB        85.9000   19.4720   39.9550 C.3   137  SER137      0.2116
    103  OG        87.0930   18.7240   39.7860 O.3   137  SER137     -0.2180
    104  N         76.7590   23.1470   36.8420 N.3   152  THR152     -0.1203
    105  CA        75.5090   22.4660   36.5520 C.3   152  THR152      0.1994
    106  C         75.4680   20.9700   36.8610 C.2   152  THR152      0.2617
    107  O         74.8030   20.2060   36.1630 O.2   152  THR152     -0.2717
    108  CB        75.1250   22.6910   35.0800 C.3   152  THR152      0.1784
    109  OG1       76.0740   22.0360   34.2330 O.3   152  THR152     -0.2211
    110  CG2       75.1290   24.1890   34.7630 C.3   152  THR152      0.0376
    111  N         76.1840   20.5720   37.9090 N.am  153  ALA153     -0.1979
    112  CA        76.2250   19.1890   38.3780 C.3   153  ALA153      0.1597
    113  C         76.5360   19.3210   39.8650 C.2   153  ALA153      0.2287
    114  O         77.2150   20.2680   40.2710 O.2   153  ALA153     -0.2864
    115  CB        77.3230   18.3980   37.6650 C.3   153  ALA153      0.0319
    116  N         72.5820   15.7610   38.5600 N.3   206  VAL206     -0.1231
    117  CA        73.4360   14.6030   38.3180 C.3   206  VAL206      0.1678
    118  C         74.7460   15.0000   38.9900 C.2   206  VAL206      0.2434
    119  O         75.0460   16.1900   39.1230 O.2   206  VAL206     -0.2733
    120  CB        73.6940   14.3830   36.8170 C.3   206  VAL206      0.0265
    121  CG1       72.3710   14.1930   36.0840 C.3   206  VAL206      0.0020
    122  CG2       74.4710   15.5650   36.2510 C.3   206  VAL206      0.0020
    123  N         75.5590   14.0200   39.4000 N.am  207  PRO207     -0.2718
    124  CA        76.8200   14.3620   40.0640 C.3   207  PRO207      0.1535
    125  C         77.9440   14.9760   39.2400 C.2   207  PRO207      0.2598
    126  O         78.1100   14.6800   38.0570 O.2   207  PRO207     -0.2715
    127  CB        77.2360   13.0370   40.7040 C.3   207  PRO207      0.0310
    128  CG        76.7090   12.0220   39.7360 C.3   207  PRO207      0.0237
    129  CD        75.3390   12.5630   39.3860 C.3   207  PRO207      0.0939
    130  N         78.7050   15.8460   39.8940 N.am  208  LEU208     -0.1964
    131  CA        79.8690   16.4840   39.2920 C.3   208  LEU208      0.1728
    132  C         80.9820   15.4790   39.5650 C.2   208  LEU208      0.2616
    133  O         81.3090   15.2180   40.7190 O.2   208  LEU208     -0.2715
    134  CB        80.2030   17.7950   40.0030 C.3   208  LEU208      0.0311
    135  CG        81.4930   18.4910   39.5530 C.3   208  LEU208      0.0022
    136  CD1       81.2780   19.0930   38.1810 C.3   208  LEU208      0.0001
    137  CD2       81.8810   19.5840   40.5490 C.3   208  LEU208      0.0001
    138  N         81.5550   14.9150   38.5110 N.am  209  ILE209     -0.1977
    139  CA        82.6100   13.9230   38.6670 C.3   209  ILE209      0.1596
    140  C         83.9800   14.5090   38.3510 C.2   209  ILE209      0.2287
    141  O         84.2020   15.0240   37.2570 O.2   209  ILE209     -0.2864
    142  CB        82.3260   12.7180   37.7560 C.3   209  ILE209      0.0276
    143  CG1       80.9800   12.1040   38.1550 C.3   209  ILE209      0.0022
    144  CG2       83.4550   11.6950   37.8550 C.3   209  ILE209      0.0022
    145  CD1       80.4770   11.0460   37.2090 C.3   209  ILE209      0.0001
@<TRIPOS>BOND
     1    77    76    2
     2    76    75    1
     3    74    75    1
     4    75    78    1
     5    81    79    1
     6    37    36    2
     7    78    79    1
     8    69    68    2
     9    79    80    1
    10    68    67    1
    11    36    35    1
    12    72    70    1
    13    51    50    1
    14    51    52    1
    15    67    70    1
    16    67    66    1
    17    35    34    1
    18    70    71    1
    19    50    47    1
    20    49    48    2
    21    66    57   am
    22    52    53   ar
    23    52    54   ar
    24    82    83    1
    25    58    57    2
    26    46    47    1
    27    46    40   am
    28    47    48    1
    29    48    55   am
    30    57    56    1
    31    71    73    1
    32     4     3    2
    33    39    38    1
    34    39    40    1
    35    39    42    1
    36     1     2    1
    37    40    41    2
    38     5     6    1
    39     5     2    1
    40    55    56    1
    41     3     2    1
    42     3    10   am
    43    12    11    1
    44    12    13    2
    45    83    84    1
    46    56    59    1
    47    11    10    1
    48    11    14    1
    49     6     7    1
    50    43    42    1
    51    43    45    1
    52    42    44    1
    53    20    19    2
    54    32    33    2
    55    32    31    1
    56    17    18    1
    57    85    84    2
    58    84    86   am
    59    14    16    1
    60    14    15    1
    61    59    60    1
    62     7     8    2
    63     7     9   am
    64    19    18    1
    65    60    61    1
    66    31    30    1
    67    18    21    1
    68    30    25   am
    69    86    87    1
    70    64    63    1
    71    21    22    1
    72    63    65    1
    73    63    62    2
    74    61    62    1
    75   109   108    1
    76    25    24    1
    77    25    26    2
    78    23    24    1
    79    24    27    1
    80    87    88    1
    81    87    90    1
    82   110   108    1
    83    94    88   am
    84    94    95    1
    85   108   105    1
    86    88    89    2
    87    95    96    1
    88    90    91    1
    89    27    28    1
    90    27    29    1
    91   121   120    1
    92   107   106    2
    93   122   120    1
    94   105   104    1
    95   105   106    1
    96   120   117    1
    97   106   111   am
    98    91    92   ar
    99    91    93   ar
   100    96    97    2
   101    96    98   am
   102   145   143    1
   103   141   140    2
   104   115   112    1
   105   142   144    1
   106   142   143    1
   107   142   139    1
   108    98    99    1
   109   111   112    1
   110   126   125    2
   111   136   135    1
   112   117   116    1
   113   117   118    1
   114   140   139    1
   115   112   113    1
   116   138   139    1
   117   138   132   am
   118   118   119    2
   119   118   123   am
   120    99   100    1
   121    99   102    1
   122   125   130   am
   123   125   124    1
   124   131   132    1
   125   131   130    1
   126   131   134    1
   127   129   123    1
   128   129   128    1
   129   123   124    1
   130   135   134    1
   131   135   137    1
   132   132   133    2
   133   100   101    2
   134   128   127    1
   135   103   102    1
   136   113   114    2
   137   124   127    1
