@<TRIPOS>MOLECULE
tmp/1jg3B00.pdb
 138 136 0 0 0
SMALL
GASTEIGER

@<TRIPOS>ATOM
      1  N         60.8420   19.9380   32.8780 N.3    51  GLU51      -0.1231
      2  CA        61.6330   18.9470   33.5890 C.3    51  GLU51       0.1684
      3  C         62.8600   18.6180   32.7510 C.2    51  GLU51       0.2434
      4  O         62.9010   18.9090   31.5540 O.2    51  GLU51      -0.2733
      5  CB        60.8050   17.6900   33.9380 C.3    51  GLU51       0.0402
      6  CG        60.0380   17.0150   32.8300 C.3    51  GLU51       0.1161
      7  CD        59.1930   15.8440   33.3520 C.2    51  GLU51       0.3649
      8  OE1       58.1950   16.0830   34.0650 O.co2  51  GLU51      -0.2457
      9  OE2       59.5350   14.6800   33.0590 O.co2  51  GLU51      -0.2457
     10  N         63.9020   18.0520   33.3760 N.am   52  PRO52      -0.2718
     11  CA        65.0870   17.7380   32.5780 C.3    52  PRO52       0.1535
     12  C         64.8580   16.6530   31.5410 C.2    52  PRO52       0.2598
     13  O         63.9070   15.8750   31.6340 O.2    52  PRO52      -0.2715
     14  CB        66.1390   17.3650   33.6280 C.3    52  PRO52       0.0310
     15  CG        65.3530   16.9520   34.8040 C.3    52  PRO52       0.0237
     16  CD        64.1490   17.8460   34.8130 C.3    52  PRO52       0.0939
     17  N         65.7230   16.6320   30.5340 N.am   53  LEU53      -0.1964
     18  CA        65.6330   15.6490   29.4690 C.3    53  LEU53       0.1713
     19  C         66.9880   14.9990   29.2540 C.2    53  LEU53       0.2458
     20  O         68.0280   15.5710   29.5760 O.2    53  LEU53      -0.2730
     21  CB        65.1670   16.3060   28.1630 C.3    53  LEU53       0.0310
     22  CG        63.7180   16.8060   28.1270 C.3    53  LEU53       0.0022
     23  CD1       63.4590   17.5660   26.8360 C.3    53  LEU53       0.0001
     24  CD2       62.7740   15.6160   28.2520 C.3    53  LEU53       0.0001
     25  N         66.9910   13.7810   28.7120 N.am   54  PRO54      -0.2727
     26  CA        68.2610   13.0940   28.4750 C.3    54  PRO54       0.1402
     27  C         69.0360   13.6960   27.3070 C.2    54  PRO54       0.2269
     28  O         68.4550   14.2570   26.3820 O.2    54  PRO54      -0.2865
     29  CB        67.8320   11.6570   28.1600 C.3    54  PRO54       0.0296
     30  CG        66.4760   11.5310   28.8110 C.3    54  PRO54       0.0237
     31  CD        65.8510   12.8690   28.5170 C.3    54  PRO54       0.0939
     32  N         71.9700   14.8230   31.2940 N.3    60  THR60      -0.1218
     33  CA        70.6790   15.4600   31.0440 C.3    60  THR60       0.1862
     34  C         70.8180   16.9640   30.8690 C.2    60  THR60       0.2287
     35  O         71.7960   17.5650   31.3070 O.2    60  THR60      -0.2866
     36  CB        69.7080   15.2680   32.2290 C.3    60  THR60       0.1770
     37  OG1       70.2480   15.9210   33.3850 O.3    60  THR60      -0.2211
     38  CG2       69.4990   13.7950   32.5410 C.3    60  THR60       0.0375
     39  N         69.1500   20.3710   31.9750 N.3    62  SER62      -0.1202
     40  CA        68.3040   20.7630   33.1000 C.3    62  SER62       0.2020
     41  C         66.9070   21.2390   32.7220 C.2    62  SER62       0.2618
     42  O         66.6320   21.5760   31.5700 O.2    62  SER62      -0.2717
     43  CB        68.9940   21.8590   33.9240 C.3    62  SER62       0.2103
     44  OG        70.2850   21.4540   34.3440 O.3    62  SER62      -0.2182
     45  N         66.0220   21.2610   33.7130 N.am   63  ALA63      -0.1979
     46  CA        64.6560   21.7130   33.5010 C.3    63  ALA63       0.1597
     47  C         64.6580   23.2220   33.2720 C.2    63  ALA63       0.2287
     48  O         65.4750   23.9450   33.8450 O.2    63  ALA63      -0.2864
     49  CB        63.8080   21.3870   34.7110 C.3    63  ALA63       0.0319
     50  N         62.8300   25.6480   34.3900 N.3    65  HIS65      -0.1226
     51  CA        62.7640   26.4280   35.6220 C.3    65  HIS65       0.1752
     52  C         64.0940   26.4960   36.3730 C.2    65  HIS65       0.2595
     53  O         64.4330   27.5330   36.9490 O.2    65  HIS65      -0.2718
     54  CB        61.6550   25.8930   36.5490 C.3    65  HIS65       0.0759
     55  CG        61.9420   24.5480   37.1460 C.ar   65  HIS65       0.0818
     56  ND1       61.3970   23.3810   36.6540 N.ar   65  HIS65      -0.2268
     57  CD2       62.7270   24.1840   38.1870 C.ar   65  HIS65       0.1154
     58  CE1       61.8350   22.3560   37.3640 C.ar   65  HIS65       0.1986
     59  NE2       62.6440   22.8170   38.3010 N.ar   65  HIS65      -0.2212
     60  N         64.8540   25.4050   36.3510 N.am   66  MET66      -0.1979
     61  CA        66.1340   25.3610   37.0540 C.3    66  MET66       0.1605
     62  C         67.1630   26.2510   36.3650 C.2    66  MET66       0.2287
     63  O         67.9030   26.9820   37.0240 O.2    66  MET66      -0.2864
     64  CB        66.6410   23.9150   37.1350 C.3    66  MET66       0.0413
     65  CG        67.8490   23.7100   38.0560 C.3    66  MET66       0.0598
     66  SD        67.6340   24.3820   39.7260 S.3    66  MET66      -0.1393
     67  CE        66.3530   23.4940   40.2540 C.3    66  MET66       0.0692
     68  N         66.1850   29.7840   37.1260 N.3    69  ILE69      -0.1245
     69  CA        66.5040   30.1290   38.5050 C.3    69  ILE69       0.1561
     70  C         67.9840   30.4730   38.6590 C.2    69  ILE69       0.2260
     71  O         68.3400   31.4580   39.3020 O.2    69  ILE69      -0.2867
     72  CB        66.1530   28.9630   39.4650 C.3    69  ILE69       0.0252
     73  CG1       64.6390   28.9170   39.6930 C.3    69  ILE69       0.0019
     74  CG2       66.8860   29.1280   40.7970 C.3    69  ILE69       0.0019
     75  CD1       64.1660   27.7010   40.4810 C.3    69  ILE69       0.0001
     76  N         76.7590   23.1470   36.8420 N.3   152  THR152     -0.1218
     77  CA        75.5090   22.4660   36.5520 C.3   152  THR152      0.1862
     78  C         75.4680   20.9700   36.8610 C.2   152  THR152      0.2287
     79  O         74.8030   20.2060   36.1630 O.2   152  THR152     -0.2866
     80  CB        75.1250   22.6910   35.0800 C.3   152  THR152      0.1770
     81  OG1       76.0740   22.0360   34.2330 O.3   152  THR152     -0.2211
     82  CG2       75.1290   24.1890   34.7630 C.3   152  THR152      0.0375
     83  N         72.7320   12.6700   44.0850 N.3   181  LEU181     -0.1231
     84  CA        71.6190   13.2820   43.3550 C.3   181  LEU181      0.1693
     85  C         70.7510   14.2820   44.1140 C.2   181  LEU181      0.2592
     86  O         69.7200   14.7320   43.6040 O.2   181  LEU181     -0.2718
     87  CB        70.7250   12.1720   42.7910 C.3   181  LEU181      0.0284
     88  CG        71.3730   11.2160   41.7810 C.3   181  LEU181      0.0019
     89  CD1       70.4580   10.0220   41.5470 C.3   181  LEU181      0.0001
     90  CD2       71.6440   11.9460   40.4650 C.3   181  LEU181      0.0001
     91  N         71.1490   14.6300   45.3280 N.am  182  TRP182     -0.1976
     92  CA        70.3650   15.5750   46.1070 C.3   182  TRP182      0.1640
     93  C         71.2830   16.6100   46.7060 C.2   182  TRP182      0.2290
     94  O         72.1660   16.2920   47.5030 O.2   182  TRP182     -0.2864
     95  CB        69.5770   14.8450   47.1920 C.3   182  TRP182      0.0576
     96  CG        68.7030   13.7800   46.6070 C.ar  182  TRP182      0.0006
     97  CD1       69.0390   12.4770   46.3790 C.ar  182  TRP182      0.0946
     98  CD2       67.3760   13.9480   46.1020 C.ar  182  TRP182      0.0152
     99  NE1       68.0000   11.8200   45.7620 N.ar  182  TRP182     -0.2442
    100  CE2       66.9670   12.7010   45.5790 C.ar  182  TRP182      0.0810
    101  CE3       66.4910   15.0320   46.0380 C.ar  182  TRP182      0.0012
    102  CZ2       65.7050   12.5080   44.9950 C.ar  182  TRP182      0.0191
    103  CZ3       65.2350   14.8380   45.4570 C.ar  182  TRP182      0.0001
    104  CH2       64.8580   13.5840   44.9450 C.ar  182  TRP182      0.0015
    105  N         66.8160   23.0950   48.4350 N.3   202  GLY202     -0.1210
    106  CA        67.0410   21.8240   47.7770 C.3   202  GLY202      0.1956
    107  C         66.8450   21.7540   46.2740 C.2   202  GLY202      0.2612
    108  O         65.9200   22.3410   45.7100 O.2   202  GLY202     -0.2717
    109  N         67.7390   21.0220   45.6230 N.am  203  VAL203     -0.1965
    110  CA        67.6700   20.8170   44.1820 C.3   203  VAL203      0.1727
    111  C         68.1640   19.3960   43.9340 C.2   203  VAL203      0.2616
    112  O         68.6890   18.7540   44.8470 O.2   203  VAL203     -0.2715
    113  CB        68.5480   21.8330   43.4050 C.3   203  VAL203      0.0290
    114  CG1       67.9730   23.2460   43.5590 C.3   203  VAL203      0.0023
    115  CG2       69.9830   21.7880   43.9060 C.3   203  VAL203      0.0023
    116  N         67.9850   18.9070   42.7120 N.am  204  ALA204     -0.1963
    117  CA        68.4010   17.5570   42.3530 C.3   204  ALA204      0.1728
    118  C         69.1510   17.5810   41.0300 C.2   204  ALA204      0.2616
    119  O         68.5490   17.8000   39.9760 O.2   204  ALA204     -0.2715
    120  CB        67.1740   16.6430   42.2440 C.3   204  ALA204      0.0334
    121  N         70.4600   17.3350   41.0980 N.am  205  PHE205     -0.1960
    122  CA        71.3410   17.3400   39.9280 C.3   205  PHE205      0.1771
    123  C         72.1660   16.0580   39.7870 C.2   205  PHE205      0.2619
    124  O         72.4450   15.3690   40.7690 O.2   205  PHE205     -0.2715
    125  CB        72.3510   18.4940   40.0170 C.3   205  PHE205      0.0574
    126  CG        71.8040   19.8410   39.6340 C.ar  205  PHE205     -0.0200
    127  CD1       71.0260   20.5760   40.5220 C.ar  205  PHE205     -0.0042
    128  CD2       72.1070   20.3930   38.3910 C.ar  205  PHE205     -0.0042
    129  CE1       70.5610   21.8400   40.1820 C.ar  205  PHE205     -0.0003
    130  CE2       71.6450   21.6570   38.0410 C.ar  205  PHE205     -0.0003
    131  CZ        70.8720   22.3810   38.9400 C.ar  205  PHE205     -0.0000
    132  N         72.5820   15.7610   38.5600 N.am  206  VAL206     -0.1977
    133  CA        73.4360   14.6030   38.3180 C.3   206  VAL206      0.1596
    134  C         74.7460   15.0000   38.9900 C.2   206  VAL206      0.2287
    135  O         75.0460   16.1900   39.1230 O.2   206  VAL206     -0.2864
    136  CB        73.6940   14.3830   36.8170 C.3   206  VAL206      0.0276
    137  CG1       72.3710   14.1930   36.0840 C.3   206  VAL206      0.0022
    138  CG2       74.4710   15.5650   36.2510 C.3   206  VAL206      0.0022
@<TRIPOS>BOND
     1    28    27    2
     2    23    22    1
     3    27    26    1
     4    22    21    1
     5    22    24    1
     6    29    26    1
     7    29    30    1
     8    21    18    1
     9    26    25    1
    10    31    25    1
    11    31    30    1
    12    25    19   am
    13    19    18    1
    14    19    20    2
    15    18    17    1
    16    17    12   am
    17    34    33    1
    18    34    35    2
    19    33    32    1
    20    33    36    1
    21    12    13    2
    22    12    11    1
    23     4     3    2
    24    42    41    2
    25    39    40    1
    26    36    38    1
    27    36    37    1
    28    11    10    1
    29    11    14    1
    30    41    40    1
    31    41    45   am
    32     3    10   am
    33     3     2    1
    34     6     7    1
    35     6     5    1
    36     1     2    1
    37     9     7   ar
    38    40    43    1
    39    47    46    1
    40    47    48    2
    41     7     8   ar
    42    10    16    1
    43    46    45    1
    44    46    49    1
    45     2     5    1
    46    14    15    1
    47    43    44    1
    48    81    80    1
    49    50    51    1
    50    82    80    1
    51    15    16    1
    52    80    77    1
    53    51    52    1
    54    51    54    1
    55   137   136    1
    56    79    78    2
    57   138   136    1
    58    60    52   am
    59    60    61    1
    60    62    63    2
    61    62    61    1
    62    52    53    2
    63    54    55    1
    64    77    76    1
    65    77    78    1
    66    56    55   ar
    67    56    58   ar
    68   136   133    1
    69    61    64    1
    70    68    69    1
    71    64    65    1
    72    55    57   ar
    73    58    59   ar
    74   130   128   ar
    75   130   131   ar
    76    65    66    1
    77    57    59   ar
    78   133   132    1
    79   133   134    1
    80   128   126   ar
    81    69    70    1
    82    69    72    1
    83   132   123   am
    84    70    71    2
    85   131   129   ar
    86   134   135    2
    87    72    73    1
    88    72    74    1
    89   126   125    1
    90   126   127   ar
    91    73    75    1
    92    66    67    1
    93   123   122    1
    94   123   124    2
    95   122   125    1
    96   122   121    1
    97   119   118    2
    98   129   127   ar
    99    90    88    1
   100   118   121   am
   101   118   117    1
   102    89    88    1
   103    88    87    1
   104   120   117    1
   105   117   116    1
   106   116   111   am
   107    87    84    1
   108    84    83    1
   109    84    85    1
   110   113   114    1
   111   113   115    1
   112   113   110    1
   113    86    85    2
   114   111   110    1
   115   111   112    2
   116    85    91   am
   117   110   109    1
   118   104   102   ar
   119   104   103   ar
   120   102   100   ar
   121    91    92    1
   122   103   101   ar
   123   100    99   ar
   124   100    98   ar
   125   109   107   am
   126   108   107    2
   127    99    97   ar
   128   101    98   ar
   129    98    96   ar
   130    92    93    1
   131    92    95    1
   132   107   106    1
   133    97    96   ar
   134    96    95    1
   135    93    94    2
   136   106   105    1
