@<TRIPOS>MOLECULE
tmp/1jg9A00.pdb
 134 127 0 0 0
SMALL
GASTEIGER

@<TRIPOS>ATOM
      1  N         63.1590   30.5060   23.7770 N.3   144  ASP144     -0.1239
      2  CA        63.5150   29.3190   23.0060 C.3   144  ASP144      0.1674
      3  C         64.7800   28.7240   23.6120 C.2   144  ASP144      0.2266
      4  O         65.7100   28.3530   22.9000 O.2   144  ASP144     -0.2867
      5  CB        63.7540   29.6630   21.5300 C.3   144  ASP144      0.1410
      6  CG        63.9790   28.4240   20.6710 C.2   144  ASP144      0.3668
      7  OD1       63.7510   27.2970   21.1680 O.co2 144  ASP144     -0.2456
      8  OD2       64.3730   28.5770   19.4960 O.co2 144  ASP144     -0.2456
      9  N         67.9320   30.5240   22.6130 N.3   147  TYR147     -0.1241
     10  CA        68.1500   30.7180   21.1870 C.3   147  TYR147      0.1605
     11  C         67.5720   32.0140   20.6180 C.2   147  TYR147      0.2264
     12  O         67.6660   32.2680   19.4160 O.2   147  TYR147     -0.2867
     13  CB        67.6690   29.5040   20.3940 C.3   147  TYR147      0.0534
     14  CG        68.6820   28.3730   20.4120 C.ar  147  TYR147     -0.0201
     15  CD1       68.6280   27.3750   21.3820 C.ar  147  TYR147     -0.0009
     16  CD2       69.7310   28.3360   19.4920 C.ar  147  TYR147     -0.0009
     17  CE1       69.5940   26.3720   21.4400 C.ar  147  TYR147      0.0417
     18  CE2       70.7040   27.3360   19.5420 C.ar  147  TYR147      0.0417
     19  CZ        70.6280   26.3570   20.5200 C.ar  147  TYR147      0.1957
     20  OH        71.5840   25.3630   20.5860 O.3   147  TYR147     -0.2866
     21  N         69.0470   34.6200   13.2320 N.3   187  HIS187     -0.1241
     22  CA        68.0700   35.5140   13.8350 C.3   187  HIS187      0.1621
     23  C         68.4870   35.9720   15.2250 C.2   187  HIS187      0.2264
     24  O         69.3450   35.3560   15.8580 O.2   187  HIS187     -0.2867
     25  CB        66.7440   34.7710   13.9650 C.3   187  HIS187      0.0745
     26  CG        66.8910   33.3960   14.5420 C.ar  187  HIS187      0.0817
     27  ND1       67.1140   32.2810   13.7620 N.ar  187  HIS187     -0.2268
     28  CD2       66.8970   32.9630   15.8250 C.ar  187  HIS187      0.1154
     29  CE1       67.2520   31.2220   14.5380 C.ar  187  HIS187      0.1986
     30  NE2       67.1250   31.6080   15.7960 N.ar  187  HIS187     -0.2212
     31  N         57.5540   25.8730   13.6150 N.3   229  PHE229     -0.1241
     32  CA        56.7910   25.8310   14.8650 C.3   229  PHE229      0.1605
     33  C         55.3510   26.2510   14.5800 C.2   229  PHE229      0.2264
     34  O         54.9070   27.3210   14.9970 O.2   229  PHE229     -0.2867
     35  CB        57.3940   26.7580   15.9240 C.3   229  PHE229      0.0534
     36  CG        58.8050   26.4190   16.3060 C.ar  229  PHE229     -0.0203
     37  CD1       59.2390   25.0940   16.3380 C.ar  229  PHE229     -0.0042
     38  CD2       59.7000   27.4230   16.6620 C.ar  229  PHE229     -0.0042
     39  CE1       60.5440   24.7800   16.7210 C.ar  229  PHE229     -0.0003
     40  CE2       61.0030   27.1130   17.0460 C.ar  229  PHE229     -0.0003
     41  CZ        61.4240   25.7900   17.0750 C.ar  229  PHE229     -0.0000
     42  N         61.1740   30.9810   13.1800 N.3   250  PHE250     -0.1241
     43  CA        60.9360   30.2350   14.4010 C.3   250  PHE250      0.1605
     44  C         59.8850   30.9100   15.2760 C.2   250  PHE250      0.2264
     45  O         58.7680   31.1390   14.8080 O.2   250  PHE250     -0.2867
     46  CB        62.2860   30.0480   15.0870 C.3   250  PHE250      0.0534
     47  CG        63.2790   29.3040   14.2230 C.ar  250  PHE250     -0.0203
     48  CD1       63.2370   27.9150   14.1290 C.ar  250  PHE250     -0.0042
     49  CD2       64.2250   29.9980   13.4650 C.ar  250  PHE250     -0.0042
     50  CE1       64.1220   27.2230   13.2920 C.ar  250  PHE250     -0.0003
     51  CE2       65.1130   29.3190   12.6270 C.ar  250  PHE250     -0.0003
     52  CZ        65.0610   27.9260   12.5400 C.ar  250  PHE250     -0.0000
     53  N         61.6830   35.7870   17.5490 N.3   254  GLN254     -0.1245
     54  CA        62.9710   35.5340   16.9070 C.3   254  GLN254      0.1566
     55  C         62.8520   36.0890   15.4780 C.2   254  GLN254      0.2260
     56  O         62.1410   35.5310   14.6370 O.2   254  GLN254     -0.2867
     57  CB        63.2810   34.0300   16.9010 C.3   254  GLN254      0.0367
     58  CG        63.6850   33.4970   18.2720 C.3   254  GLN254      0.0905
     59  CD        63.6400   31.9840   18.3490 C.2   254  GLN254      0.2608
     60  OE1       62.5990   31.3770   18.1130 O.2   254  GLN254     -0.2717
     61  NE2       64.7680   31.3700   18.6840 N.am  254  GLN254     -0.0878
     62  N         78.8960   26.2440   16.5300 N.3   284  ARG284     -0.1245
     63  CA        77.7610   25.4920   15.9970 C.3   284  ARG284      0.1563
     64  C         76.9860   26.4980   15.1530 C.2   284  ARG284      0.2260
     65  O         76.3830   27.4280   15.6840 O.2   284  ARG284     -0.2867
     66  CB        76.8900   24.9770   17.1490 C.3   284  ARG284      0.0307
     67  CG        75.6990   24.0950   16.7380 C.3   284  ARG284      0.0489
     68  CD        74.9050   23.6900   17.9820 C.3   284  ARG284      0.2205
     69  NE        73.9010   22.6560   17.7390 N.pl3 284  ARG284     -0.0865
     70  CZ        72.6160   22.8900   17.4970 C.cat 284  ARG284      0.5346
     71  NH1       72.1550   24.1310   17.4620 N.pl3 284  ARG284      0.1354
     72  NH2       71.7830   21.8750   17.3060 N.pl3 284  ARG284      0.1354
     73  N         74.0750   27.6090   13.7160 N.3   286  ASP286     -0.1225
     74  CA        72.6570   27.3100   13.8530 C.3   286  ASP286      0.1805
     75  C         71.7490   27.7970   12.7440 C.2   286  ASP286      0.2597
     76  O         71.8590   28.9310   12.2850 O.2   286  ASP286     -0.2718
     77  CB        72.1590   27.8380   15.1970 C.3   286  ASP286      0.1424
     78  CG        72.9100   27.2320   16.3620 C.2   286  ASP286      0.3668
     79  OD1       73.1710   26.0090   16.3170 O.co2 286  ASP286     -0.2456
     80  OD2       73.2360   27.9670   17.3200 O.co2 286  ASP286     -0.2456
     81  N         70.8390   26.9150   12.3400 N.am  287  ALA287     -0.1979
     82  CA        69.8600   27.2010   11.3020 C.3   287  ALA287      0.1597
     83  C         70.4870   27.7220   10.0160 C.2   287  ALA287      0.2287
     84  O         69.9760   28.6610    9.4020 O.2   287  ALA287     -0.2864
     85  CB        68.8270   28.1980   11.8240 C.3   287  ALA287      0.0319
     86  N         74.5050   22.8540   11.4730 N.3   328  GLU328     -0.1245
     87  CA        73.2970   22.3200   12.0960 C.3   328  GLU328      0.1567
     88  C         72.2190   22.4410   11.0230 C.2   328  GLU328      0.2260
     89  O         71.5160   23.4530   10.9380 O.2   328  GLU328     -0.2867
     90  CB        72.9100   23.1400   13.3340 C.3   328  GLU328      0.0388
     91  CG        71.7980   22.5230   14.1920 C.3   328  GLU328      0.1160
     92  CD        70.4540   23.2230   14.0420 C.2   328  GLU328      0.3649
     93  OE1       70.4400   24.4470   13.7900 O.co2 328  GLU328     -0.2457
     94  OE2       69.4100   22.5530   14.1970 O.co2 328  GLU328     -0.2457
     95  N         69.1920   18.4310   22.4280 N.3   392  HIS392     -0.1226
     96  CA        68.2450   19.2450   23.1810 C.3   392  HIS392      0.1752
     97  C         66.9790   19.4250   22.3510 C.2   392  HIS392      0.2596
     98  O         65.9660   19.9140   22.8490 O.2   392  HIS392     -0.2718
     99  CB        68.8360   20.6190   23.4830 C.3   392  HIS392      0.0759
    100  CG        69.1460   21.4110   22.2550 C.ar  392  HIS392      0.0818
    101  ND1       70.1800   21.0840   21.4040 N.ar  392  HIS392     -0.2268
    102  CD2       68.5320   22.4870   21.7070 C.ar  392  HIS392      0.1154
    103  CE1       70.1870   21.9240   20.3830 C.ar  392  HIS392      0.1986
    104  NE2       69.1980   22.7840   20.5430 N.ar  392  HIS392     -0.2212
    105  N         67.0420   19.0370   21.0790 N.am  393  ASP393     -0.1974
    106  CA        65.8840   19.1540   20.2050 C.3   393  ASP393      0.1709
    107  C         65.0900   17.8660   20.0280 C.2   393  ASP393      0.2293
    108  O         65.5030   16.7740   20.4300 O.2   393  ASP393     -0.2864
    109  CB        66.2880   19.6600   18.8150 C.3   393  ASP393      0.1436
    110  CG        66.5610   21.1480   18.7860 C.2   393  ASP393      0.3671
    111  OD1       65.9120   21.8990   19.5470 O.co2 393  ASP393     -0.2456
    112  OD2       67.4200   21.5720   17.9800 O.co2 393  ASP393     -0.2456
    113  N         59.7830   20.1070   24.0740 N.3   509  ARG509     -0.1245
    114  CA        61.1920   19.7600   24.0540 C.3   509  ARG509      0.1563
    115  C         61.7450   19.8000   25.4750 C.2   509  ARG509      0.2260
    116  O         62.7220   19.1230   25.7840 O.2   509  ARG509     -0.2867
    117  CB        61.9640   20.7120   23.1460 C.3   509  ARG509      0.0307
    118  CG        61.7190   20.4490   21.6670 C.3   509  ARG509      0.0489
    119  CD        62.4860   21.4230   20.8140 C.3   509  ARG509      0.2205
    120  NE        61.9740   22.7810   20.9630 N.pl3 509  ARG509     -0.0865
    121  CZ        62.5290   23.8510   20.4040 C.cat 509  ARG509      0.5346
    122  NH1       63.6210   23.7210   19.6610 N.pl3 509  ARG509      0.1354
    123  NH2       61.9850   25.0500   20.5780 N.pl3 509  ARG509      0.1354
    124  N         64.8740   17.9240   28.6370 N.3   513  ARG513     -0.1245
    125  CA        65.9070   18.8490   29.0670 C.3   513  ARG513      0.1563
    126  C         65.8810   18.8630   30.5930 C.2   513  ARG513      0.2260
    127  O         65.7250   19.9150   31.2160 O.2   513  ARG513     -0.2867
    128  CB        65.6440   20.2510   28.5140 C.3   513  ARG513      0.0307
    129  CG        65.6830   20.3110   26.9900 C.3   513  ARG513      0.0489
    130  CD        65.2770   21.6810   26.4790 C.3   513  ARG513      0.2205
    131  NE        65.3050   21.7460   25.0190 N.pl3 513  ARG513     -0.0865
    132  CZ        64.9420   22.8190   24.3230 C.cat 513  ARG513      0.5346
    133  NH1       64.5230   23.9050   24.9600 N.pl3 513  ARG513      0.1354
    134  NH2       65.0150   22.8150   22.9960 N.pl3 513  ARG513      0.1354
@<TRIPOS>BOND
     1    84    83    2
     2    83    82    1
     3    89    88    2
     4    88    87    1
     5    82    85    1
     6    82    81    1
     7    86    87    1
     8    87    90    1
     9    76    75    2
    10    81    75   am
    11    52    51   ar
    12    52    50   ar
    13    51    49   ar
    14    75    74    1
    15    42    43    1
    16    21    22    1
    17    50    48   ar
    18    90    91    1
    19    49    47   ar
    20    31    32    1
    21    73    74    1
    22    27    29   ar
    23    27    26   ar
    24    93    92   ar
    25    22    25    1
    26    22    23    1
    27    74    77    1
    28    25    26    1
    29    92    91    1
    30    92    94   ar
    31    48    47   ar
    32    47    46    1
    33    43    46    1
    34    43    44    1
    35    29    30   ar
    36    26    28   ar
    37    33    32    1
    38    33    34    2
    39    56    55    2
    40    45    44    2
    41    32    35    1
    42    64    65    2
    43    64    63    1
    44    77    78    1
    45    23    24    2
    46    55    54    1
    47    30    28   ar
    48    35    36    1
    49    63    62    1
    50    63    66    1
    51    36    37   ar
    52    36    38   ar
    53    79    78   ar
    54    37    39   ar
    55    78    80   ar
    56    38    40   ar
    57    39    41   ar
    58    67    66    1
    59    67    68    1
    60    57    54    1
    61    57    58    1
    62    54    53    1
    63    40    41   ar
    64    72    70    1
    65    71    70    1
    66    70    69    2
    67    69    68    1
    68   112   110   ar
    69    60    59    2
    70    58    59    1
    71    59    61   am
    72   110   109    1
    73   110   111   ar
    74   109   106    1
    75    12    11    2
    76    16    18   ar
    77    16    14   ar
    78     8     6   ar
    79    18    19   ar
    80   122   121    1
    81   107   106    1
    82   107   108    2
    83   106   105    1
    84   103   104   ar
    85   103   101   ar
    86    13    14    1
    87    13    10    1
    88   121   123    1
    89   121   120    2
    90    14    15   ar
    91    19    20    1
    92    19    17   ar
    93   104   102   ar
    94    11    10    1
    95     6     7   ar
    96     6     5    1
    97   119   120    1
    98   119   118    1
    99   105    97   am
   100    10     9    1
   101    15    17   ar
   102   101   100   ar
   103     5     2    1
   104   118   117    1
   105   102   100   ar
   106   100    99    1
   107    97    98    2
   108    97    96    1
   109    95    96    1
   110     4     3    2
   111   134   132    1
   112     2     3    1
   113     2     1    1
   114   117   114    1
   115    96    99    1
   116   114   113    1
   117   114   115    1
   118   132   133    1
   119   132   131    2
   120   131   130    1
   121   115   116    2
   122   130   129    1
   123   129   128    1
   124   128   125    1
   125   124   125    1
   126   125   126    1
   127   126   127    2
