@<TRIPOS>MOLECULE
tmp/1jgcC00.pdb
 96 89 0 0 0
SMALL
GASTEIGER

@<TRIPOS>ATOM
      1  N          1.6590   50.4340    6.4710 N.3    19  LEU19      -0.1245
      2  CA         1.5360   50.5440    5.0220 C.3    19  LEU19       0.1561
      3  C          2.8650   51.0570    4.4750 C.2    19  LEU19       0.2260
      4  O          3.2750   50.7000    3.3720 O.2    19  LEU19      -0.2867
      5  CB         0.4200   51.5180    4.6320 C.3    19  LEU19       0.0270
      6  CG        -1.0220   51.1450    4.9660 C.3    19  LEU19       0.0019
      7  CD1       -1.9400   52.2930    4.5910 C.3    19  LEU19       0.0001
      8  CD2       -1.4120   49.8800    4.2290 C.3    19  LEU19       0.0001
      9  N          5.3730   48.1010    4.5720 N.3    22  ILE22      -0.1231
     10  CA         5.0660   47.1610    3.5080 C.3    22  ILE22       0.1692
     11  C          5.7250   47.5860    2.2020 C.2    22  ILE22       0.2592
     12  O          6.4410   46.8020    1.5840 O.2    22  ILE22      -0.2718
     13  CB         3.5500   47.0450    3.2760 C.3    22  ILE22       0.0266
     14  CG1        2.8900   46.4030    4.4900 C.3    22  ILE22       0.0019
     15  CG2        3.2710   46.2250    2.0290 C.3    22  ILE22       0.0020
     16  CD1        1.3820   46.3900    4.4130 C.3    22  ILE22       0.0001
     17  N          5.4970   48.8260    1.7840 N.am   23  SER23      -0.1952
     18  CA         6.0730   49.3020    0.5350 C.3    23  SER23       0.1924
     19  C          7.5840   49.4250    0.5760 C.2    23  SER23       0.2314
     20  O          8.2600   49.1460   -0.4150 O.2    23  SER23      -0.2863
     21  CB         5.4540   50.6430    0.1440 C.3    23  SER23       0.2116
     22  OG         4.0850   50.4790   -0.1830 O.3    23  SER23      -0.2180
     23  N          8.9740   45.9260    0.2630 N.3    26  TRP26      -0.1241
     24  CA         8.7590   45.3810   -1.0680 C.3    26  TRP26       0.1605
     25  C          9.6830   45.9870   -2.1000 C.2    26  TRP26       0.2264
     26  O         10.1790   45.2870   -2.9700 O.2    26  TRP26      -0.2867
     27  CB         7.2980   45.5400   -1.5050 C.3    26  TRP26       0.0550
     28  CG         6.9490   44.5740   -2.5830 C.ar   26  TRP26       0.0003
     29  CD1        7.1040   44.7510   -3.9290 C.ar   26  TRP26       0.0946
     30  CD2        6.5010   43.2230   -2.4040 C.ar   26  TRP26       0.0152
     31  NE1        6.7860   43.5900   -4.6000 N.ar   26  TRP26      -0.2442
     32  CE2        6.4130   42.6360   -3.6890 C.ar   26  TRP26       0.0810
     33  CE3        6.1690   42.4520   -1.2850 C.ar   26  TRP26       0.0012
     34  CZ2        6.0080   41.3070   -3.8830 C.ar   26  TRP26       0.0191
     35  CZ3        5.7660   41.1310   -1.4760 C.ar   26  TRP26       0.0001
     36  CH2        5.6900   40.5720   -2.7670 C.ar   26  TRP26       0.0015
     37  N         11.0220   40.1880    1.2600 N.3    45  ARG45      -0.1245
     38  CA         9.6780   39.8330    0.8210 C.3    45  ARG45       0.1563
     39  C          8.8860   39.2980    2.0090 C.2    45  ARG45       0.2260
     40  O          7.7260   39.6580    2.2090 O.2    45  ARG45      -0.2867
     41  CB         9.7210   38.7790   -0.2900 C.3    45  ARG45       0.0307
     42  CG         8.8450   39.1360   -1.4850 C.3    45  ARG45       0.0489
     43  CD         8.7470   38.0220   -2.5260 C.3    45  ARG45       0.2205
     44  NE         7.6330   37.1300   -2.2290 N.pl3  45  ARG45      -0.0865
     45  CZ         6.6130   36.9020   -3.0480 C.cat  45  ARG45       0.5346
     46  NH1        6.5510   37.4920   -4.2380 N.pl3  45  ARG45       0.1354
     47  NH2        5.6410   36.0940   -2.6630 N.pl3  45  ARG45       0.1354
     48  N          5.4340   40.9060    3.7530 N.3    49  ILE49      -0.1245
     49  CA         4.2070   40.1380    3.9100 C.3    49  ILE49       0.1561
     50  C          3.8100   40.0320    5.3940 C.2    49  ILE49       0.2260
     51  O          2.6380   39.8630    5.7190 O.2    49  ILE49      -0.2867
     52  CB         4.3590   38.7450    3.2410 C.3    49  ILE49       0.0252
     53  CG1        4.4770   38.9450    1.7300 C.3    49  ILE49       0.0019
     54  CG2        3.1720   37.8520    3.5500 C.3    49  ILE49       0.0019
     55  CD1        4.6200   37.6790    0.9240 C.3    49  ILE49       0.0001
     56  N          1.9710   43.1830    6.0850 N.3    52  MET52      -0.1230
     57  CA         0.6590   43.1660    5.4680 C.3    52  MET52       0.1702
     58  C         -0.3040   42.5490    6.4680 C.2    52  MET52       0.2592
     59  O         -1.4340   43.0180    6.6300 O.2    52  MET52      -0.2718
     60  CB         0.6880   42.3480    4.1830 C.3    52  MET52       0.0401
     61  CG         1.3820   43.0470    3.0210 C.3    52  MET52       0.0596
     62  SD         1.6420   41.9360    1.6160 S.3    52  MET52      -0.1393
     63  CE         3.3120   42.3840    1.1400 C.3    52  MET52       0.0692
     64  N          0.1570   41.5050    7.1480 N.am   53  GLY53      -0.1957
     65  CA        -0.6640   40.8480    8.1480 C.3    53  GLY53       0.1869
     66  C         -1.0030   41.7780    9.3060 C.2    53  GLY53       0.2309
     67  O         -2.1400   41.7970    9.7860 O.2    53  GLY53      -0.2863
     68  N         -1.1020   45.0750    9.2310 N.3    55  ALA55      -0.1231
     69  CA        -2.0280   46.0610    8.6950 C.3    55  ALA55       0.1694
     70  C         -3.4540   45.5330    8.6890 C.2    55  ALA55       0.2592
     71  O         -4.3750   46.2090    9.1380 O.2    55  ALA55      -0.2718
     72  CB        -1.6140   46.4460    7.2950 C.3    55  ALA55       0.0304
     73  N         -3.6410   44.3210    8.1830 N.am   56  ASP56      -0.1974
     74  CA        -4.9730   43.7340    8.1340 C.3    56  ASP56       0.1709
     75  C         -5.5680   43.6300    9.5360 C.2    56  ASP56       0.2293
     76  O         -6.7160   44.0140    9.7790 O.2    56  ASP56      -0.2864
     77  CB        -4.9140   42.3500    7.4890 C.3    56  ASP56       0.1436
     78  CG        -6.2610   41.6800    7.4570 C.2    56  ASP56       0.3671
     79  OD1       -7.2340   42.3400    7.0300 O.co2  56  ASP56      -0.2456
     80  OD2       -6.3530   40.5000    7.8530 O.co2  56  ASP56      -0.2456
     81  N         -6.6590   47.0670   10.7440 N.3    59  ILE59      -0.1245
     82  CA        -7.8300   47.5910   10.0660 C.3    59  ILE59       0.1561
     83  C         -9.0700   46.9480   10.6680 C.2    59  ILE59       0.2260
     84  O        -10.0870   47.6090   10.8580 O.2    59  ILE59      -0.2867
     85  CB        -7.7830   47.2870    8.5630 C.3    59  ILE59       0.0252
     86  CG1       -6.6530   48.0810    7.9200 C.3    59  ILE59       0.0019
     87  CG2       -9.1120   47.6160    7.9230 C.3    59  ILE59       0.0019
     88  CD1       -6.4070   47.7370    6.4750 C.3    59  ILE59       0.0001
     89  N         -6.2540   54.3300    4.6280 N.3    71  LEU71      -0.1245
     90  CA        -5.0390   53.8720    3.9630 C.3    71  LEU71       0.1561
     91  C         -4.6830   54.8000    2.8130 C.2    71  LEU71       0.2260
     92  O         -4.0280   54.3800    1.8580 O.2    71  LEU71      -0.2867
     93  CB        -5.2090   52.4520    3.4060 C.3    71  LEU71       0.0270
     94  CG        -6.2440   51.4270    3.8920 C.3    71  LEU71       0.0019
     95  CD1       -5.7380   50.0470    3.4880 C.3    71  LEU71       0.0001
     96  CD2       -6.4480   51.4690    5.3820 C.3    71  LEU71       0.0001
@<TRIPOS>BOND
     1    31    29   ar
     2    31    32   ar
     3    46    45    1
     4    29    28   ar
     5    34    32   ar
     6    34    36   ar
     7    32    30   ar
     8    45    47    1
     9    45    44    2
    10    26    25    2
    11    36    35   ar
    12    28    30   ar
    13    28    27    1
    14    43    44    1
    15    43    42    1
    16    30    33   ar
    17    25    24    1
    18    27    24    1
    19    42    41    1
    20    35    33   ar
    21    24    23    1
    22    20    19    2
    23    41    38    1
    24    22    21    1
    25    21    18    1
    26    18    19    1
    27    18    17    1
    28    38    37    1
    29    38    39    1
    30    55    53    1
    31    63    62    1
    32    12    11    2
    33    62    61    1
    34    53    52    1
    35    17    11   am
    36    92    91    2
    37    39    40    2
    38    15    13    1
    39    11    10    1
    40    91    90    1
    41    61    60    1
    42    52    54    1
    43    52    49    1
    44    13    10    1
    45    13    14    1
    46     4     3    2
    47    93    94    1
    48    93    90    1
    49    95    94    1
    50    10     9    1
    51    48    49    1
    52    94    96    1
    53    49    50    1
    54    90    89    1
    55    60    57    1
    56     8     6    1
    57    16    14    1
    58     3     2    1
    59     7     6    1
    60     5     6    1
    61     5     2    1
    62     2     1    1
    63    50    51    2
    64    57    56    1
    65    57    58    1
    66    58    59    2
    67    58    64   am
    68    88    86    1
    69    79    78   ar
    70    64    65    1
    71    72    69    1
    72    78    77    1
    73    78    80   ar
    74    77    74    1
    75    86    85    1
    76    87    85    1
    77    74    73    1
    78    74    75    1
    79    65    66    1
    80    73    70   am
    81    85    82    1
    82    70    69    1
    83    70    71    2
    84    69    68    1
    85    66    67    2
    86    75    76    2
    87    82    83    1
    88    82    81    1
    89    83    84    2
