@<TRIPOS>MOLECULE
tmp/1jgjA00.pdb
 114 107 0 0 0
SMALL
GASTEIGER

@<TRIPOS>ATOM
      1  N         43.5400    6.0090    5.1340 N.3    32  GLY32      -0.1210
      2  CA        44.9470    5.9050    5.4750 C.3    32  GLY32       0.1956
      3  C         45.7900    6.5840    4.4140 C.2    32  GLY32       0.2611
      4  O         46.8750    6.1180    4.0590 O.2    32  GLY32      -0.2717
      5  N         45.2830    7.7030    3.9090 N.am   33  GLU33      -0.1979
      6  CA        45.9650    8.4470    2.8620 C.3    33  GLU33       0.1602
      7  C         45.3430    9.8260    2.6880 C.2    33  GLU33       0.2287
      8  O         45.9590   10.7300    2.1180 O.2    33  GLU33      -0.2864
      9  CB        45.8740    7.6650    1.5560 C.3    33  GLU33       0.0415
     10  CG        44.5570    6.9150    1.4030 C.3    33  GLU33       0.1163
     11  CD        44.4750    6.1300    0.1100 C.2    33  GLU33       0.3649
     12  OE1       45.4820    5.4860   -0.2500 O.co2  33  GLU33      -0.2457
     13  OE2       43.4050    6.1480   -0.5400 O.co2  33  GLU33      -0.2457
     14  N         47.1910   13.1760    3.4710 N.3    36  TYR36      -0.1227
     15  CA        47.9840   13.8840    2.4720 C.3    36  TYR36       0.1736
     16  C         47.1420   14.9210    1.7220 C.2    36  TYR36       0.2595
     17  O         47.4880   16.1050    1.6540 O.2    36  TYR36      -0.2718
     18  CB        48.5590   12.8830    1.4670 C.3    36  TYR36       0.0548
     19  CG        49.6190   11.9570    2.0290 C.ar   36  TYR36      -0.0200
     20  CD1       50.9230   12.4070    2.2500 C.ar   36  TYR36      -0.0009
     21  CD2       49.3270   10.6220    2.3170 C.ar   36  TYR36      -0.0009
     22  CE1       51.9030   11.5520    2.7350 C.ar   36  TYR36       0.0417
     23  CE2       50.3080    9.7590    2.8070 C.ar   36  TYR36       0.0417
     24  CZ        51.5910   10.2310    3.0090 C.ar   36  TYR36       0.1957
     25  OH        52.5700    9.3800    3.4740 O.3    36  TYR36      -0.2866
     26  N         46.0380   14.4610    1.1480 N.am   37  TYR37      -0.1976
     27  CA        45.1420   15.3350    0.4110 C.3    37  TYR37       0.1639
     28  C         44.6630   16.4990    1.2660 C.2    37  TYR37       0.2290
     29  O         44.6830   17.6520    0.8270 O.2    37  TYR37      -0.2864
     30  CB        43.9400   14.5410   -0.1040 C.3    37  TYR37       0.0560
     31  CG        44.2890   13.5480   -1.1900 C.ar   37  TYR37      -0.0198
     32  CD1       44.7020   13.9810   -2.4550 C.ar   37  TYR37      -0.0009
     33  CD2       44.2320   12.1720   -0.9510 C.ar   37  TYR37      -0.0009
     34  CE1       45.0500   13.0690   -3.4550 C.ar   37  TYR37       0.0417
     35  CE2       44.5780   11.2550   -1.9400 C.ar   37  TYR37       0.0417
     36  CZ        44.9850   11.7080   -3.1890 C.ar   37  TYR37       0.1957
     37  OH        45.3210   10.7950   -4.1700 O.3    37  TYR37      -0.2866
     38  N         47.3880   18.9720    1.9700 N.3    40  LEU40      -0.1245
     39  CA        47.6660   19.7060    0.7360 C.3    40  LEU40       0.1561
     40  C         46.6170   20.8040    0.5040 C.2    40  LEU40       0.2260
     41  O         46.9120   21.8630   -0.0400 O.2    40  LEU40      -0.2867
     42  CB        47.6550   18.7300   -0.4310 C.3    40  LEU40       0.0270
     43  CG        48.8650   18.5970   -1.3460 C.3    40  LEU40       0.0019
     44  CD1       50.1690   18.8130   -0.6150 C.3    40  LEU40       0.0001
     45  CD2       48.8120   17.2070   -1.9570 C.3    40  LEU40       0.0001
     46  N         53.9150   16.9100    5.7020 N.3    86  PHE86      -0.1241
     47  CA        53.7310   16.0960    4.5140 C.3    86  PHE86       0.1605
     48  C         55.0340   15.3480    4.2290 C.2    86  PHE86       0.2264
     49  O         55.0470   14.1210    4.1610 O.2    86  PHE86      -0.2867
     50  CB        53.3470   17.0020    3.3290 C.3    86  PHE86       0.0534
     51  CG        52.9150   16.2500    2.0890 C.ar   86  PHE86      -0.0203
     52  CD1       53.8440   15.5490    1.3180 C.ar   86  PHE86      -0.0042
     53  CD2       51.5760   16.2390    1.6990 C.ar   86  PHE86      -0.0042
     54  CE1       53.4470   14.8490    0.1770 C.ar   86  PHE86      -0.0003
     55  CE2       51.1680   15.5450    0.5680 C.ar   86  PHE86      -0.0003
     56  CZ        52.1040   14.8470   -0.1970 C.ar   86  PHE86      -0.0000
     57  N         55.8940   11.0340    4.4020 N.3    90  LEU90      -0.1245
     58  CA        56.5460   10.2360    3.3700 C.3    90  LEU90       0.1561
     59  C         57.7390    9.4930    3.9560 C.2    90  LEU90       0.2260
     60  O         57.8430    8.2710    3.8350 O.2    90  LEU90      -0.2867
     61  CB        57.0520   11.1210    2.2260 C.3    90  LEU90       0.0270
     62  CG        56.0440   11.7370    1.2660 C.3    90  LEU90       0.0019
     63  CD1       54.9810   12.4810    2.0500 C.3    90  LEU90       0.0001
     64  CD2       56.7670   12.6680    0.3160 C.3    90  LEU90       0.0001
     65  N         61.2400    2.9810    2.4600 N.3   152  ARG152     -0.1245
     66  CA        59.9050    2.8570    1.8860 C.3   152  ARG152      0.1563
     67  C         60.0040    2.2360    0.4980 C.2   152  ARG152      0.2260
     68  O         61.1040    1.9830   -0.0070 O.2   152  ARG152     -0.2867
     69  CB        59.2440    4.2330    1.7730 C.3   152  ARG152      0.0307
     70  CG        59.4450    5.1170    2.9910 C.3   152  ARG152      0.0489
     71  CD        58.7060    4.6000    4.2090 C.3   152  ARG152      0.2205
     72  NE        57.3880    5.2100    4.3520 N.pl3 152  ARG152     -0.0865
     73  CZ        56.3090    4.8540    3.6660 C.cat 152  ARG152      0.5346
     74  NH1       55.1600    5.4810    3.8790 N.pl3 152  ARG152      0.1354
     75  NH2       56.3740    3.8680    2.7780 N.pl3 152  ARG152      0.1354
     76  N         57.5860    5.5870   -2.9770 N.3   156  ILE156     -0.1245
     77  CA        57.6080    6.6310   -1.9550 C.3   156  ILE156      0.1561
     78  C         59.0050    7.2310   -1.8700 C.2   156  ILE156      0.2260
     79  O         59.1660    8.4450   -1.7630 O.2   156  ILE156     -0.2867
     80  CB        57.2400    6.0690   -0.5580 C.3   156  ILE156      0.0252
     81  CG1       55.9550    5.2420   -0.6400 C.3   156  ILE156      0.0019
     82  CG2       57.0770    7.2050    0.4320 C.3   156  ILE156      0.0019
     83  CD1       54.7650    5.9840   -1.1960 C.3   156  ILE156      0.0001
     84  N         59.4090    9.7950   -4.5900 N.3   159  LEU159     -0.1245
     85  CA        58.5420   10.9630   -4.4610 C.3   159  LEU159      0.1561
     86  C         59.1630   11.9160   -3.4410 C.2   159  LEU159      0.2260
     87  O         59.2890   13.1160   -3.6860 O.2   159  LEU159     -0.2867
     88  CB        57.1380   10.5630   -3.9930 C.3   159  LEU159      0.0270
     89  CG        56.1770   11.7420   -3.7520 C.3   159  LEU159      0.0019
     90  CD1       56.1060   12.6160   -5.0050 C.3   159  LEU159      0.0001
     91  CD2       54.7880   11.2330   -3.3920 C.3   159  LEU159      0.0001
     92  N         52.8680   15.6460   -6.4200 N.3   212  ALA212     -0.1231
     93  CA        52.3820   14.5870   -5.5440 C.3   212  ALA212      0.1694
     94  C         51.1780   13.8590   -6.1540 C.2   212  ALA212      0.2591
     95  O         51.0920   12.6320   -6.0760 O.2   212  ALA212     -0.2718
     96  CB        52.0130   15.1620   -4.1880 C.3   212  ALA212      0.0304
     97  N         50.2500   14.5990   -6.7610 N.am  213  LEU213     -0.1980
     98  CA        49.0770   13.9630   -7.3690 C.3   213  LEU213      0.1596
     99  C         49.5150   13.0610   -8.5130 C.2   213  LEU213      0.2287
    100  O         48.8940   12.0370   -8.7820 O.2   213  LEU213     -0.2864
    101  CB        48.0940   14.9850   -7.9370 C.3   213  LEU213      0.0297
    102  CG        47.4040   16.0730   -7.1250 C.3   213  LEU213      0.0022
    103  CD1       46.3260   16.6900   -8.0250 C.3   213  LEU213      0.0001
    104  CD2       46.7840   15.5300   -5.8450 C.3   213  LEU213      0.0001
    105  N         52.2390   11.3580   -8.6510 N.3   215  ALA215     -0.1231
    106  CA        52.7530   10.1590   -8.0130 C.3   215  ALA215      0.1694
    107  C         51.6330    9.2580   -7.4810 C.2   215  ALA215      0.2591
    108  O         51.7200    8.0250   -7.5650 O.2   215  ALA215     -0.2718
    109  CB        53.6910   10.5500   -6.8850 C.3   215  ALA215      0.0304
    110  N         50.5880    9.8790   -6.9390 N.am  216  ALA216     -0.1980
    111  CA        49.4510    9.1520   -6.3860 C.3   216  ALA216      0.1597
    112  C         49.0510    7.9770   -7.2700 C.2   216  ALA216      0.2287
    113  O         48.4360    7.0190   -6.8030 O.2   216  ALA216     -0.2864
    114  CB        48.2780   10.0920   -6.2110 C.3   216  ALA216      0.0319
@<TRIPOS>BOND
     1   100    99    2
     2   105   106    1
     3    99    98    1
     4   103   102    1
     5   106   107    1
     6   106   109    1
     7   101    98    1
     8   101   102    1
     9   108   107    2
    10   107   110   am
    11    98    97    1
    12   112   113    2
    13   112   111    1
    14   102   104    1
    15   110   111    1
    16    97    94   am
    17    92    93    1
    18   111   114    1
    19    94    95    2
    20    94    93    1
    21    93    96    1
    22    90    89    1
    23    84    85    1
    24    85    88    1
    25    85    86    1
    26    37    36    1
    27    88    89    1
    28    89    91    1
    29    87    86    2
    30    34    36   ar
    31    34    32   ar
    32    36    35   ar
    33    76    77    1
    34    32    31   ar
    35    45    43    1
    36    77    78    1
    37    77    80    1
    38    35    33   ar
    39    78    79    2
    40    43    44    1
    41    43    42    1
    42    83    81    1
    43    31    33   ar
    44    31    30    1
    45    81    80    1
    46    80    82    1
    47    13    11   ar
    48    42    39    1
    49    12    11   ar
    50    56    54   ar
    51    56    55   ar
    52    30    27    1
    53    41    40    2
    54    68    67    2
    55    11    10    1
    56    54    52   ar
    57    64    62    1
    58    27    26    1
    59    27    28    1
    60    67    66    1
    61    40    39    1
    62    55    53   ar
    63    39    38    1
    64    29    28    2
    65    26    16   am
    66    62    63    1
    67    62    61    1
    68    52    51   ar
    69    10     9    1
    70    18    19    1
    71    18    15    1
    72     9     6    1
    73    17    16    2
    74    53    51   ar
    75    16    15    1
    76    69    66    1
    77    69    70    1
    78    66    65    1
    79    19    20   ar
    80    19    21   ar
    81    51    50    1
    82     8     7    2
    83    61    58    1
    84    20    22   ar
    85    21    23   ar
    86    15    14    1
    87     7     6    1
    88    22    24   ar
    89    75    73    1
    90    23    24   ar
    91     6     5    1
    92    70    71    1
    93    24    25    1
    94    50    47    1
    95    58    59    1
    96    58    57    1
    97    73    74    1
    98    73    72    2
    99    60    59    2
   100     5     3   am
   101     4     3    2
   102    49    48    2
   103    71    72    1
   104    48    47    1
   105     3     2    1
   106    47    46    1
   107     1     2    1
