@<TRIPOS>MOLECULE
tmp/1jgtB00.pdb
 184 175 0 0 0
SMALL
GASTEIGER

@<TRIPOS>ATOM
      1  N        -40.1930  106.4550   26.3140 N.3   244  VAL244     -0.1231
      2  CA       -41.5460  105.9210   26.2510 C.3   244  VAL244      0.1692
      3  C        -42.2380  106.5230   27.4710 C.2   244  VAL244      0.2592
      4  O        -41.8690  106.2590   28.6190 O.2   244  VAL244     -0.2718
      5  CB       -41.5690  104.3850   26.2770 C.3   244  VAL244      0.0266
      6  CG1      -41.2760  103.8540   24.8860 C.3   244  VAL244      0.0020
      7  CG2      -40.5390  103.8590   27.2480 C.3   244  VAL244      0.0020
      8  N        -43.2370  107.3550   27.2050 N.am  245  LEU245     -0.1966
      9  CA       -43.9130  108.0710   28.2690 C.3   245  LEU245      0.1728
     10  C        -45.3390  107.6790   28.6290 C.2   245  LEU245      0.2616
     11  O        -46.1970  107.4870   27.7660 O.2   245  LEU245     -0.2715
     12  CB       -43.8670  109.5690   27.9470 C.3   245  LEU245      0.0311
     13  CG       -44.4870  110.5150   28.9730 C.3   245  LEU245      0.0022
     14  CD1      -43.5900  110.5970   30.2130 C.3   245  LEU245      0.0001
     15  CD2      -44.6620  111.8900   28.3350 C.3   245  LEU245      0.0001
     16  N        -45.5760  107.5920   29.9320 N.am  246  SER246     -0.1950
     17  CA       -46.8810  107.2600   30.4830 C.3   246  SER246      0.1924
     18  C        -47.3410  108.4620   31.3060 C.2   246  SER246      0.2314
     19  O        -46.7170  109.5250   31.2650 O.2   246  SER246     -0.2863
     20  CB       -46.7550  106.0250   31.3750 C.3   246  SER246      0.2116
     21  OG       -47.9290  105.8010   32.1180 O.3   246  SER246     -0.2180
     22  N        -47.5280  108.2830   34.5190 N.3   248  GLY248     -0.1210
     23  CA       -46.8720  108.1120   35.8040 C.3   248  GLY248      0.1956
     24  C        -45.5790  108.8530   36.0740 C.2   248  GLY248      0.2612
     25  O        -44.9190  109.3760   35.1650 O.2   248  GLY248     -0.2717
     26  N        -45.2090  108.8720   37.3510 N.am  249  ILE249     -0.1965
     27  CA       -44.0030  109.5440   37.8100 C.3   249  ILE249      0.1727
     28  C        -42.7200  108.8950   37.2930 C.2   249  ILE249      0.2616
     29  O        -41.7250  109.5820   37.0370 O.2   249  ILE249     -0.2715
     30  CB       -43.9570  109.5810   39.3590 C.3   249  ILE249      0.0290
     31  CG1      -42.8360  110.5150   39.8210 C.3   249  ILE249      0.0022
     32  CG2      -43.7590  108.1710   39.9190 C.3   249  ILE249      0.0023
     33  CD1      -42.9800  111.9370   39.2860 C.3   249  ILE249      0.0001
     34  N        -42.7450  107.5740   37.1330 N.am  250  ASP250     -0.1957
     35  CA       -41.5720  106.8360   36.6640 C.3   250  ASP250      0.1840
     36  C        -41.0420  107.3450   35.3290 C.2   250  ASP250      0.2622
     37  O        -39.9170  107.8460   35.2450 O.2   250  ASP250     -0.2715
     38  CB       -41.9100  105.3520   36.5270 C.3   250  ASP250      0.1450
     39  CG       -42.3260  104.7280   37.8390 C.2   250  ASP250      0.3671
     40  OD1      -42.8410  103.5910   37.8070 O.co2 250  ASP250     -0.2456
     41  OD2      -42.1320  105.3680   38.8990 O.co2 250  ASP250     -0.2456
     42  N        -41.8530  107.2090   34.2870 N.am  251  SER251     -0.1950
     43  CA       -41.4440  107.6440   32.9600 C.3   251  SER251      0.1924
     44  C        -41.3210  109.1620   32.8700 C.2   251  SER251      0.2314
     45  O        -40.4850  109.6760   32.1260 O.2   251  SER251     -0.2863
     46  CB       -42.4250  107.1270   31.9060 C.3   251  SER251      0.2116
     47  OG       -43.7490  107.5480   32.1750 O.3   251  SER251     -0.2180
     48  N        -43.0710  109.2880   23.2920 N.3   268  VAL268     -0.1231
     49  CA       -44.1000  108.5230   22.6320 C.3   268  VAL268      0.1692
     50  C        -44.9300  107.8160   23.6920 C.2   268  VAL268      0.2593
     51  O        -44.4000  107.3700   24.7110 O.2   268  VAL268     -0.2718
     52  CB       -43.4850  107.4840   21.6660 C.3   268  VAL268      0.0266
     53  CG1      -42.6570  106.4630   22.4460 C.3   268  VAL268      0.0020
     54  CG2      -44.5940  106.8060   20.8730 C.3   268  VAL268      0.0020
     55  N        -46.2340  107.7380   23.4500 N.am  269  SER269     -0.1938
     56  CA       -47.1640  107.0920   24.3640 C.3   269  SER269      0.2055
     57  C        -48.0510  106.1680   23.5580 C.2   269  SER269      0.2642
     58  O        -48.4100  106.4760   22.4220 O.2   269  SER269     -0.2714
     59  CB       -48.0450  108.1240   25.0760 C.3   269  SER269      0.2130
     60  OG       -47.2750  109.0620   25.7990 O.3   269  SER269     -0.2179
     61  N        -48.4030  105.0350   24.1530 N.am  270  MET270     -0.1976
     62  CA       -49.2540  104.0530   23.5000 C.3   270  MET270      0.1605
     63  C        -50.5670  103.9320   24.2580 C.2   270  MET270      0.2287
     64  O        -50.6060  104.0730   25.4850 O.2   270  MET270     -0.2864
     65  CB       -48.5520  102.6910   23.4600 C.3   270  MET270      0.0413
     66  CG       -49.4150  101.5450   22.9470 C.3   270  MET270      0.0598
     67  SD       -49.7660  100.3430   24.2680 S.3   270  MET270     -0.1393
     68  CE       -51.4550  100.7200   24.6570 C.3   270  MET270      0.0692
     69  N        -53.4730  107.0340   28.6870 N.3   277  GLU277     -0.1245
     70  CA       -53.1040  108.1060   29.6000 C.3   277  GLU277      0.1567
     71  C        -52.5750  109.2490   28.7490 C.2   277  GLU277      0.2260
     72  O        -51.6320  109.9340   29.1260 O.2   277  GLU277     -0.2867
     73  CB       -52.0270  107.6290   30.5850 C.3   277  GLU277      0.0388
     74  CG       -52.5300  106.5710   31.5660 C.3   277  GLU277      0.1160
     75  CD       -51.4670  106.0860   32.5390 C.2   277  GLU277      0.3649
     76  OE1      -51.8070  105.2750   33.4230 O.co2 277  GLU277     -0.2457
     77  OE2      -50.2960  106.5030   32.4250 O.co2 277  GLU277     -0.2457
     78  N        -46.9900   92.7310   31.2740 N.3   323  TYR323     -0.1241
     79  CA       -46.3640   94.0540   31.3490 C.3   323  TYR323      0.1605
     80  C        -45.6810   94.3580   30.0270 C.2   323  TYR323      0.2264
     81  O        -45.5810   95.5140   29.6080 O.2   323  TYR323     -0.2867
     82  CB       -45.2930   94.0990   32.4420 C.3   323  TYR323      0.0534
     83  CG       -45.7830   93.8120   33.8370 C.ar  323  TYR323     -0.0201
     84  CD1      -45.1490   92.8490   34.6250 C.ar  323  TYR323     -0.0009
     85  CD2      -46.8590   94.5110   34.3850 C.ar  323  TYR323     -0.0009
     86  CE1      -45.5700   92.5840   35.9250 C.ar  323  TYR323      0.0417
     87  CE2      -47.2920   94.2550   35.6910 C.ar  323  TYR323      0.0417
     88  CZ       -46.6390   93.2890   36.4540 C.ar  323  TYR323      0.1957
     89  OH       -47.0370   93.0310   37.7490 O.3   323  TYR323     -0.2866
     90  N        -47.8160   95.6620   26.0260 N.3   326  PRO326     -0.2102
     91  CA       -47.9160   97.0670   25.6260 C.3   326  PRO326      0.1504
     92  C        -46.6060   97.5790   25.0260 C.2   326  PRO326      0.2575
     93  O        -46.6070   98.2670   24.0140 O.2   326  PRO326     -0.2718
     94  CB       -48.2450   97.7760   26.9400 C.3   326  PRO326      0.0282
     95  CG       -48.9430   96.7390   27.7260 C.3   326  PRO326      0.0208
     96  CD       -48.1370   95.5110   27.4560 C.3   326  PRO326      0.0893
     97  N        -45.4880   97.2430   25.6640 N.am  327  LEU327     -0.1980
     98  CA       -44.1820   97.6910   25.1950 C.3   327  LEU327      0.1596
     99  C        -43.8170   97.0390   23.8690 C.2   327  LEU327      0.2287
    100  O        -43.3330   97.7070   22.9550 O.2   327  LEU327     -0.2864
    101  CB       -43.1100   97.4030   26.2580 C.3   327  LEU327      0.0297
    102  CG       -43.3030   98.1670   27.5720 C.3   327  LEU327      0.0022
    103  CD1      -42.1840   97.8190   28.5550 C.3   327  LEU327      0.0001
    104  CD2      -43.3110   99.6660   27.2870 C.3   327  LEU327      0.0001
    105  N        -45.6340   98.7700   21.2660 N.3   330  LEU330     -0.1245
    106  CA       -45.1070  100.1020   21.0280 C.3   330  LEU330      0.1561
    107  C        -43.8350  100.0610   20.1900 C.2   330  LEU330      0.2260
    108  O        -43.7230  100.7800   19.1930 O.2   330  LEU330     -0.2867
    109  CB       -44.8470  100.8160   22.3590 C.3   330  LEU330      0.0270
    110  CG       -44.5490  102.3240   22.3290 C.3   330  LEU330      0.0019
    111  CD1      -44.5150  102.8570   23.7570 C.3   330  LEU330      0.0001
    112  CD2      -43.2150  102.5930   21.6460 C.3   330  LEU330      0.0001
    113  N        -36.6470  104.1900   29.2010 N.3   343  THR343     -0.1203
    114  CA       -37.9410  103.9410   29.8230 C.3   343  THR343      0.1994
    115  C        -37.8790  104.1970   31.3220 C.2   343  THR343      0.2618
    116  O        -36.7950  104.3460   31.8990 O.2   343  THR343     -0.2717
    117  CB       -38.3750  102.4710   29.6450 C.3   343  THR343      0.1784
    118  OG1      -37.7940  101.6890   30.6970 O.3   343  THR343     -0.2211
    119  CG2      -37.8740  101.9180   28.3100 C.3   343  THR343      0.0376
    120  N        -39.0490  104.2460   31.9490 N.am  344  GLY344     -0.1942
    121  CA       -39.1180  104.4370   33.3860 C.3   344  GLY344      0.2014
    122  C        -39.4320  103.0790   33.9960 C.2   344  GLY344      0.2639
    123  O        -39.8680  102.9730   35.1460 O.2   344  GLY344     -0.2714
    124  N        -39.2150  102.0260   33.2150 N.am  345  TYR345     -0.1959
    125  CA       -39.4920  100.6720   33.6920 C.3   345  TYR345      0.1771
    126  C        -38.6180  100.2540   34.8740 C.2   345  TYR345      0.2620
    127  O        -37.4280  100.5720   34.9230 O.2   345  TYR345     -0.2715
    128  CB       -39.2990   99.6580   32.5590 C.3   345  TYR345      0.0574
    129  CG       -39.8810   98.2850   32.8580 C.ar  345  TYR345     -0.0198
    130  CD1      -41.0660   97.8580   32.2550 C.ar  345  TYR345     -0.0009
    131  CD2      -39.2580   97.4250   33.7590 C.ar  345  TYR345     -0.0009
    132  CE1      -41.6150   96.6040   32.5460 C.ar  345  TYR345      0.0417
    133  CE2      -39.8000   96.1740   34.0590 C.ar  345  TYR345      0.0417
    134  CZ       -40.9700   95.7690   33.4510 C.ar  345  TYR345      0.1957
    135  OH       -41.4850   94.5200   33.7360 O.3   345  TYR345     -0.2866
    136  N        -39.2180   99.5390   35.8250 N.am  346  GLY346     -0.1954
    137  CA       -38.4610   99.0390   36.9610 C.3   346  GLY346      0.1869
    138  C        -38.4620   99.8300   38.2510 C.2   346  GLY346      0.2309
    139  O        -38.1190   99.2780   39.3000 O.2   346  GLY346     -0.2863
    140  N        -40.7830  100.7330   40.1790 N.3   348  ASP348     -0.1239
    141  CA       -41.6940  100.1430   41.1580 C.3   348  ASP348      0.1674
    142  C        -41.1040   99.0500   42.0340 C.2   348  ASP348      0.2266
    143  O        -41.5440   98.8620   43.1740 O.2   348  ASP348     -0.2867
    144  CB       -42.9260   99.5740   40.4500 C.3   348  ASP348      0.1410
    145  CG       -43.8160  100.6530   39.8790 C.2   348  ASP348      0.3668
    146  OD1      -44.1690  100.5740   38.6850 O.co2 348  ASP348     -0.2456
    147  OD2      -44.1590  101.5860   40.6300 O.co2 348  ASP348     -0.2456
    148  N        -44.0820  105.5760   46.2220 N.3   420  LYS420     -0.1245
    149  CA       -42.8210  106.0360   45.6480 C.3   420  LYS420      0.1561
    150  C        -42.6020  107.5130   45.9480 C.2   420  LYS420      0.2260
    151  O        -42.1260  108.2710   45.0960 O.2   420  LYS420     -0.2867
    152  CB       -42.8430  105.8180   44.1360 C.3   420  LYS420      0.0271
    153  CG       -43.1740  104.3870   43.7500 C.3   420  LYS420      0.0035
    154  CD       -43.0760  104.1670   42.2630 C.3   420  LYS420      0.0206
    155  CE       -44.2030  104.8740   41.5340 C.3   420  LYS420      0.1093
    156  NZ       -44.2900  104.3790   40.1400 N.3   420  LYS420     -0.1314
    157  N        -41.1880  111.0380   43.8360 N.3   424  ARG424     -0.1245
    158  CA       -42.0830  112.1490   43.5270 C.3   424  ARG424      0.1563
    159  C        -41.4660  113.4460   44.0540 C.2   424  ARG424      0.2260
    160  O        -41.5040  114.4800   43.3850 O.2   424  ARG424     -0.2867
    161  CB       -43.4570  111.9140   44.1590 C.3   424  ARG424      0.0307
    162  CG       -44.2340  110.7410   43.5500 C.3   424  ARG424      0.0489
    163  CD       -45.4810  110.4250   44.3540 C.3   424  ARG424      0.2205
    164  NE       -46.2080  109.2840   43.8050 N.pl3 424  ARG424     -0.0865
    165  CZ       -46.8980  109.3130   42.6690 C.cat 424  ARG424      0.5346
    166  NH1      -47.5260  108.2220   42.2440 N.pl3 424  ARG424      0.1354
    167  NH2      -46.9720  110.4340   41.9640 N.pl3 424  ARG424      0.1354
    168  N        -50.4480  106.5610   41.7380 N.3   440  LYS440     -0.1231
    169  CA       -49.9810  105.5890   40.7550 C.3   440  LYS440      0.1693
    170  C        -51.1610  104.8920   40.1040 C.2   440  LYS440      0.2591
    171  O        -51.9700  104.2540   40.7800 O.2   440  LYS440     -0.2718
    172  CB       -49.0790  104.5360   41.3980 C.3   440  LYS440      0.0285
    173  CG       -48.4930  103.5670   40.3770 C.3   440  LYS440      0.0035
    174  CD       -47.6680  102.4780   41.0290 C.3   440  LYS440      0.0206
    175  CE       -46.8670  101.7000   39.9950 C.3   440  LYS440      0.1093
    176  NZ       -47.7050  101.0600   38.9490 N.3   440  LYS440     -0.1314
    177  N        -51.2420  105.0100   38.7840 N.am  441  LEU441     -0.1980
    178  CA       -52.3340  104.4030   38.0510 C.3   441  LEU441      0.1596
    179  C        -52.6020  105.1990   36.7930 C.2   441  LEU441      0.2287
    180  O        -53.6500  105.8790   36.7330 O.2   441  LEU441     -0.2864
    181  CB       -53.6260  104.3670   38.9100 C.3   441  LEU441      0.0297
    182  CG       -54.7850  103.6240   38.2450 C.3   441  LEU441      0.0022
    183  CD1      -54.4700  102.1600   37.9620 C.3   441  LEU441      0.0001
    184  CD2      -56.0240  103.7450   39.1200 C.3   441  LEU441      0.0001
@<TRIPOS>BOND
     1   108   107    2
     2   107   106    1
     3    54    52    1
     4   106   105    1
     5   106   109    1
     6   112   110    1
     7    52    53    1
     8    52    49    1
     9   110   109    1
    10   110   111    1
    11    58    57    2
    12    49    48    1
    13    49    50    1
    14    66    65    1
    15    66    67    1
    16   100    99    2
    17    55    50   am
    18    55    56    1
    19    65    62    1
    20    62    61    1
    21    62    63    1
    22    57    61   am
    23    57    56    1
    24    50    51    2
    25    99    98    1
    26    93    92    2
    27    63    64    2
    28    67    68    1
    29    56    59    1
    30     6     5    1
    31    92    91    1
    32    92    97   am
    33    59    60    1
    34    98    97    1
    35    98   101    1
    36    91    90    1
    37    91    94    1
    38    90    96    1
    39     2     5    1
    40     2     1    1
    41     2     3    1
    42   101   102    1
    43     5     7    1
    44    94    95    1
    45     8     3   am
    46     8     9    1
    47   104   102    1
    48    96    95    1
    49     3     4    2
    50   102   103    1
    51    11    10    2
    52    12     9    1
    53    12    13    1
    54     9    10    1
    55   119   117    1
    56    15    13    1
    57    10    16   am
    58    69    70    1
    59    71    72    2
    60    71    70    1
    61    13    14    1
    62   113   114    1
    63    70    73    1
    64    81    80    2
    65   117   114    1
    66   117   118    1
    67   114   115    1
    68    16    17    1
    69    80    79    1
    70    17    18    1
    71    17    20    1
    72    73    74    1
    73    19    18    2
    74    78    79    1
    75   115   116    2
    76   115   120   am
    77    79    82    1
    78    20    21    1
    79    74    75    1
    80    46    47    1
    81    46    43    1
    82   120   121    1
    83    45    44    2
    84   130   132   ar
    85   130   129   ar
    86    77    75   ar
    87    82    83    1
    88    75    76   ar
    89   132   134   ar
    90   128   129    1
    91   128   125    1
    92   129   131   ar
    93    44    43    1
    94    43    42    1
    95   124   125    1
    96   124   122   am
    97   121   122    1
    98   134   135    1
    99   134   133   ar
   100   125   126    1
   101   131   133   ar
   102    83    85   ar
   103    83    84   ar
   104   122   123    2
   105    42    36   am
   106    85    87   ar
   107    22    23    1
   108    84    86   ar
   109   126   127    2
   110   126   136   am
   111    25    24    2
   112    37    36    2
   113    36    35    1
   114    87    88   ar
   115    23    24    1
   116   136   137    1
   117    86    88   ar
   118    24    26   am
   119    88    89    1
   120    38    35    1
   121    38    39    1
   122    35    34    1
   123   180   179    2
   124   179   178    1
   125   137   138    1
   126    29    28    2
   127    34    28   am
   128    28    27    1
   129    26    27    1
   130    40    39   ar
   131    27    30    1
   132    39    41   ar
   133   183   182    1
   134   178   177    1
   135   178   181    1
   136   182   181    1
   137   182   184    1
   138   138   139    2
   139   146   145   ar
   140   177   170   am
   141   176   175    1
   142    33    31    1
   143    30    31    1
   144    30    32    1
   145   145   144    1
   146   145   147   ar
   147   175   174    1
   148   170   169    1
   149   170   171    2
   150   156   155    1
   151   140   141    1
   152   173   174    1
   153   173   172    1
   154   144   141    1
   155   169   172    1
   156   169   168    1
   157   141   142    1
   158   155   154    1
   159   167   165    1
   160   142   143    2
   161   166   165    1
   162   154   153    1
   163   165   164    2
   164   160   159    2
   165   158   157    1
   166   158   159    1
   167   158   161    1
   168   162   161    1
   169   162   163    1
   170   153   152    1
   171   164   163    1
   172   152   149    1
   173   151   150    2
   174   149   150    1
   175   149   148    1
