@<TRIPOS>MOLECULE
tmp/1jgtB01.pdb
 129 122 0 0 0
SMALL
GASTEIGER

@<TRIPOS>ATOM
      1  N        -42.7450  107.5740   37.1330 N.3   250  ASP250     -0.1239
      2  CA       -41.5720  106.8360   36.6640 C.3   250  ASP250      0.1674
      3  C        -41.0420  107.3450   35.3290 C.2   250  ASP250      0.2266
      4  O        -39.9170  107.8460   35.2450 O.2   250  ASP250     -0.2867
      5  CB       -41.9100  105.3520   36.5270 C.3   250  ASP250      0.1410
      6  CG       -42.3260  104.7280   37.8390 C.2   250  ASP250      0.3668
      7  OD1      -42.8410  103.5910   37.8070 O.co2 250  ASP250     -0.2456
      8  OD2      -42.1320  105.3680   38.8990 O.co2 250  ASP250     -0.2456
      9  N        -45.3590   88.8450   33.8760 N.3   320  ILE320     -0.1245
     10  CA       -44.3290   89.5850   33.1660 C.3   320  ILE320      0.1561
     11  C        -44.7200   89.8000   31.7140 C.2   320  ILE320      0.2260
     12  O        -44.6010   90.9070   31.1920 O.2   320  ILE320     -0.2867
     13  CB       -42.9860   88.8370   33.2250 C.3   320  ILE320      0.0252
     14  CG1      -42.4440   88.8770   34.6590 C.3   320  ILE320      0.0019
     15  CG2      -42.0180   89.4240   32.2130 C.3   320  ILE320      0.0019
     16  CD1      -42.3120   90.2880   35.2560 C.3   320  ILE320      0.0001
     17  N        -46.9900   92.7310   31.2740 N.3   323  TYR323     -0.1241
     18  CA       -46.3640   94.0540   31.3490 C.3   323  TYR323      0.1605
     19  C        -45.6810   94.3580   30.0270 C.2   323  TYR323      0.2264
     20  O        -45.5810   95.5140   29.6080 O.2   323  TYR323     -0.2867
     21  CB       -45.2930   94.0990   32.4420 C.3   323  TYR323      0.0534
     22  CG       -45.7830   93.8120   33.8370 C.ar  323  TYR323     -0.0201
     23  CD1      -45.1490   92.8490   34.6250 C.ar  323  TYR323     -0.0009
     24  CD2      -46.8590   94.5110   34.3850 C.ar  323  TYR323     -0.0009
     25  CE1      -45.5700   92.5840   35.9250 C.ar  323  TYR323      0.0417
     26  CE2      -47.2920   94.2550   35.6910 C.ar  323  TYR323      0.0417
     27  CZ       -46.6390   93.2890   36.4540 C.ar  323  TYR323      0.1957
     28  OH       -47.0370   93.0310   37.7490 O.3   323  TYR323     -0.2866
     29  N        -39.0490  104.2460   31.9490 N.3   344  GLY344     -0.1210
     30  CA       -39.1180  104.4370   33.3860 C.3   344  GLY344      0.1956
     31  C        -39.4320  103.0790   33.9960 C.2   344  GLY344      0.2612
     32  O        -39.8680  102.9730   35.1460 O.2   344  GLY344     -0.2717
     33  N        -39.2150  102.0260   33.2150 N.am  345  TYR345     -0.1962
     34  CA       -39.4920  100.6720   33.6920 C.3   345  TYR345      0.1771
     35  C        -38.6180  100.2540   34.8740 C.2   345  TYR345      0.2620
     36  O        -37.4280  100.5720   34.9230 O.2   345  TYR345     -0.2715
     37  CB       -39.2990   99.6580   32.5590 C.3   345  TYR345      0.0574
     38  CG       -39.8810   98.2850   32.8580 C.ar  345  TYR345     -0.0198
     39  CD1      -41.0660   97.8580   32.2550 C.ar  345  TYR345     -0.0009
     40  CD2      -39.2580   97.4250   33.7590 C.ar  345  TYR345     -0.0009
     41  CE1      -41.6150   96.6040   32.5460 C.ar  345  TYR345      0.0417
     42  CE2      -39.8000   96.1740   34.0590 C.ar  345  TYR345      0.0417
     43  CZ       -40.9700   95.7690   33.4510 C.ar  345  TYR345      0.1957
     44  OH       -41.4850   94.5200   33.7360 O.3   345  TYR345     -0.2866
     45  N        -39.2180   99.5390   35.8250 N.am  346  GLY346     -0.1940
     46  CA       -38.4610   99.0390   36.9610 C.3   346  GLY346      0.2014
     47  C        -38.4620   99.8300   38.2510 C.2   346  GLY346      0.2639
     48  O        -38.1190   99.2780   39.3000 O.2   346  GLY346     -0.2714
     49  N        -38.8330  101.1080   38.1930 N.am  347  ALA347     -0.1963
     50  CA       -38.8390  101.9470   39.3850 C.3   347  ALA347      0.1728
     51  C        -39.6640  101.3610   40.5240 C.2   347  ALA347      0.2616
     52  O        -39.2840  101.4690   41.6880 O.2   347  ALA347     -0.2715
     53  CB       -39.3510  103.3380   39.0430 C.3   347  ALA347      0.0334
     54  N        -40.7830  100.7330   40.1790 N.am  348  ASP348     -0.1957
     55  CA       -41.6940  100.1430   41.1580 C.3   348  ASP348      0.1840
     56  C        -41.1040   99.0500   42.0340 C.2   348  ASP348      0.2621
     57  O        -41.5440   98.8620   43.1740 O.2   348  ASP348     -0.2715
     58  CB       -42.9260   99.5740   40.4500 C.3   348  ASP348      0.1450
     59  CG       -43.8160  100.6530   39.8790 C.2   348  ASP348      0.3671
     60  OD1      -44.1690  100.5740   38.6850 O.co2 348  ASP348     -0.2456
     61  OD2      -44.1590  101.5860   40.6300 O.co2 348  ASP348     -0.2456
     62  N        -40.1270   98.3230   41.5070 N.am  349  ILE349     -0.1977
     63  CA       -39.5390   97.2260   42.2580 C.3   349  ILE349      0.1596
     64  C        -38.8170   97.6430   43.5380 C.2   349  ILE349      0.2287
     65  O        -39.2680   97.3100   44.6320 O.2   349  ILE349     -0.2864
     66  CB       -38.6110   96.3780   41.3590 C.3   349  ILE349      0.0276
     67  CG1      -39.4100   95.8730   40.1450 C.3   349  ILE349      0.0022
     68  CG2      -38.0560   95.1900   42.1520 C.3   349  ILE349      0.0022
     69  CD1      -38.6000   95.0390   39.1380 C.3   349  ILE349      0.0001
     70  N        -46.1690   98.9540   44.2650 N.3   354  MET354     -0.1245
     71  CA       -47.4580   98.2890   44.3830 C.3   354  MET354      0.1570
     72  C        -48.0780   98.4030   45.7740 C.2   354  MET354      0.2261
     73  O        -49.2840   98.2040   45.9500 O.2   354  MET354     -0.2867
     74  CB       -47.3210   96.8220   43.9940 C.3   354  MET354      0.0387
     75  CG       -48.4390   96.3640   43.0940 C.3   354  MET354      0.0595
     76  SD       -48.6140   97.4930   41.6880 S.3   354  MET354     -0.1393
     77  CE       -49.9550   98.5780   42.2590 C.3   354  MET354      0.0692
     78  N        -39.1290   90.6190   45.9660 N.3   370  ASP370     -0.1239
     79  CA       -38.9910   90.9820   44.5580 C.3   370  ASP370      0.1674
     80  C        -37.5340   91.0480   44.1140 C.2   370  ASP370      0.2266
     81  O        -37.1940   90.5720   43.0280 O.2   370  ASP370     -0.2867
     82  CB       -39.6580   92.3320   44.2700 C.3   370  ASP370      0.1410
     83  CG       -41.1640   92.2390   44.2260 C.2   370  ASP370      0.3668
     84  OD1      -41.6750   91.1080   44.0930 O.co2 370  ASP370     -0.2456
     85  OD2      -41.8420   93.2900   44.3080 O.co2 370  ASP370     -0.2456
     86  N        -36.0930   87.6380   43.5420 N.3   373  THR373     -0.1203
     87  CA       -36.7030   86.7930   42.5120 C.3   373  THR373      0.1994
     88  C        -36.8110   87.3670   41.0970 C.2   373  THR373      0.2617
     89  O        -37.4460   86.7590   40.2310 O.2   373  THR373     -0.2717
     90  CB       -38.1100   86.3420   42.9510 C.3   373  THR373      0.1784
     91  OG1      -38.8660   87.4830   43.3660 O.3   373  THR373     -0.2211
     92  CG2      -38.0190   85.3610   44.1130 C.3   373  THR373      0.0376
     93  N        -36.1880   88.5140   40.8350 N.am  374  PHE374     -0.1975
     94  CA       -36.2800   89.0990   39.4930 C.3   374  PHE374      0.1639
     95  C        -35.4640   88.3640   38.4310 C.2   374  PHE374      0.2290
     96  O        -35.8020   88.3860   37.2430 O.2   374  PHE374     -0.2864
     97  CB       -35.8340   90.5700   39.5090 C.3   374  PHE374      0.0560
     98  CG       -34.3450   90.7600   39.6860 C.ar  374  PHE374     -0.0200
     99  CD1      -33.8000   90.9820   40.9480 C.ar  374  PHE374     -0.0042
    100  CD2      -33.4880   90.7020   38.5880 C.ar  374  PHE374     -0.0042
    101  CE1      -32.4270   91.1420   41.1170 C.ar  374  PHE374     -0.0003
    102  CE2      -32.1100   90.8610   38.7430 C.ar  374  PHE374     -0.0003
    103  CZ       -31.5750   91.0810   40.0110 C.ar  374  PHE374     -0.0000
    104  N        -36.5930   86.3520   34.9390 N.3   377  LEU377     -0.1245
    105  CA       -37.8490   86.8690   34.3950 C.3   377  LEU377      0.1561
    106  C        -37.6050   87.5570   33.0500 C.2   377  LEU377      0.2260
    107  O        -38.5190   87.6810   32.2320 O.2   377  LEU377     -0.2867
    108  CB       -38.4810   87.8520   35.3920 C.3   377  LEU377      0.0270
    109  CG       -39.5160   87.3450   36.4000 C.3   377  LEU377      0.0019
    110  CD1      -39.2410   85.9180   36.7930 C.3   377  LEU377      0.0001
    111  CD2      -39.5270   88.2670   37.6060 C.3   377  LEU377      0.0001
    112  N        -37.5000   90.4500   32.1560 N.3   379  GLU379     -0.1245
    113  CA       -38.4030   91.5660   31.8630 C.3   379  GLU379      0.1567
    114  C        -37.7950   92.8210   31.2350 C.2   379  GLU379      0.2260
    115  O        -38.5090   93.5820   30.5740 O.2   379  GLU379     -0.2867
    116  CB       -39.1710   91.9500   33.1280 C.3   379  GLU379      0.0388
    117  CG       -38.3220   92.5320   34.2250 C.3   379  GLU379      0.1160
    118  CD       -39.0540   92.5940   35.5490 C.2   379  GLU379      0.3649
    119  OE1      -38.5270   92.0470   36.5450 O.co2 379  GLU379     -0.2457
    120  OE2      -40.1540   93.1890   35.5890 O.co2 379  GLU379     -0.2457
    121  N        -50.4480  106.5610   41.7380 N.3   440  LYS440     -0.1245
    122  CA       -49.9810  105.5890   40.7550 C.3   440  LYS440      0.1561
    123  C        -51.1610  104.8920   40.1040 C.2   440  LYS440      0.2260
    124  O        -51.9700  104.2540   40.7800 O.2   440  LYS440     -0.2867
    125  CB       -49.0790  104.5360   41.3980 C.3   440  LYS440      0.0271
    126  CG       -48.4930  103.5670   40.3770 C.3   440  LYS440      0.0035
    127  CD       -47.6680  102.4780   41.0290 C.3   440  LYS440      0.0206
    128  CE       -46.8670  101.7000   39.9950 C.3   440  LYS440      0.1093
    129  NZ       -47.7050  101.0600   38.9490 N.3   440  LYS440     -0.1314
@<TRIPOS>BOND
     1    20    19    2
     2    19    18    1
     3   115   114    2
     4    12    11    2
     5   114   113    1
     6    17    18    1
     7    18    21    1
     8    11    10    1
     9   113   112    1
    10   113   116    1
    11    29    30    1
    12    15    13    1
    13   107   106    2
    14    39    41   ar
    15    39    38   ar
    16    21    22    1
    17    41    43   ar
    18    37    38    1
    19    37    34    1
    20    38    40   ar
    21   106   105    1
    22   116   117    1
    23    10    13    1
    24    10     9    1
    25    33    34    1
    26    33    31   am
    27    13    14    1
    28    30    31    1
    29    43    44    1
    30    43    42   ar
    31    34    35    1
    32    40    42   ar
    33    22    24   ar
    34    22    23   ar
    35    31    32    2
    36   117   118    1
    37    24    26   ar
    38   105   104    1
    39   105   108    1
    40    23    25   ar
    41    14    16    1
    42    35    36    2
    43    35    45   am
    44     4     3    2
    45     3     2    1
    46   108   109    1
    47   118   120   ar
    48   118   119   ar
    49    26    27   ar
    50    45    46    1
    51    25    27   ar
    52   109   110    1
    53   109   111    1
    54    27    28    1
    55     5     2    1
    56     5     6    1
    57     2     1    1
    58    46    47    1
    59    96    95    2
    60     7     6   ar
    61     6     8   ar
    62    49    47   am
    63    49    50    1
    64    47    48    2
    65    95    94    1
    66   100   102   ar
    67   100    98   ar
    68    60    59   ar
    69   102   103   ar
    70   129   128    1
    71    53    50    1
    72    69    67    1
    73    50    51    1
    74    94    97    1
    75    94    93    1
    76    97    98    1
    77    98    99   ar
    78    59    58    1
    79    59    61   ar
    80   128   127    1
    81   103   101   ar
    82   123   122    1
    83   123   124    2
    84    67    66    1
    85    54    51   am
    86    54    55    1
    87    89    88    2
    88   126   127    1
    89   126   125    1
    90    58    55    1
    91    51    52    2
    92   122   125    1
    93   122   121    1
    94    93    88   am
    95    99   101   ar
    96    88    87    1
    97    55    56    1
    98    66    68    1
    99    66    63    1
   100    62    56   am
   101    62    63    1
   102    76    77    1
   103    76    75    1
   104    56    57    2
   105    63    64    1
   106    87    90    1
   107    87    86    1
   108    90    91    1
   109    90    92    1
   110    81    80    2
   111    75    74    1
   112    64    65    2
   113    74    71    1
   114    84    83   ar
   115    80    79    1
   116    83    82    1
   117    83    85   ar
   118    70    71    1
   119    82    79    1
   120    71    72    1
   121    79    78    1
   122    72    73    2
