@<TRIPOS>MOLECULE
tmp/1jguB00.pdb
 97 93 0 0 0
SMALL
GASTEIGER

@<TRIPOS>ATOM
      1  N         11.2100    9.8010   56.9770 N.3    33  ALA33      -0.1245
      2  CA        12.4180    9.4960   56.2340 C.3    33  ALA33       0.1562
      3  C         12.1140    9.8800   54.7890 C.2    33  ALA33       0.2260
      4  O         11.6240    9.0570   54.0110 O.2    33  ALA33      -0.2867
      5  CB        12.7430    8.0070   56.3320 C.3    33  ALA33       0.0290
      6  N         14.9730    2.0080   44.8780 N.3    47  TRP47      -0.1241
      7  CA        15.1300    2.9900   45.9390 C.3    47  TRP47       0.1605
      8  C         16.4350    3.7110   45.5940 C.2    47  TRP47       0.2264
      9  O         17.4210    3.0700   45.2070 O.2    47  TRP47      -0.2867
     10  CB        15.2770    2.3020   47.2970 C.3    47  TRP47       0.0550
     11  CG        15.7890    3.2240   48.3660 C.ar   47  TRP47       0.0003
     12  CD1       15.0980    4.2130   49.0040 C.ar   47  TRP47       0.0946
     13  CD2       17.1230    3.2630   48.8910 C.ar   47  TRP47       0.0152
     14  NE1       15.9170    4.8670   49.8970 N.ar   47  TRP47      -0.2442
     15  CE2       17.1670    4.3040   49.8460 C.ar   47  TRP47       0.0810
     16  CE3       18.2870    2.5190   48.6430 C.ar   47  TRP47       0.0012
     17  CZ2       18.3320    4.6210   50.5590 C.ar   47  TRP47       0.0191
     18  CZ3       19.4500    2.8360   49.3540 C.ar   47  TRP47       0.0001
     19  CH2       19.4590    3.8770   50.2990 C.ar   47  TRP47       0.0015
     20  N         17.6090    8.2270   50.9510 N.3    50  SER50      -0.1217
     21  CA        16.7520    8.6880   52.0310 C.3    50  SER50       0.1889
     22  C         17.5460    9.5550   52.9900 C.2    50  SER50       0.2288
     23  O         18.7560    9.3960   53.1230 O.2    50  SER50      -0.2866
     24  CB        16.1930    7.5070   52.8320 C.3    50  SER50       0.2089
     25  OG        15.3610    6.6820   52.0460 O.3    50  SER50      -0.2183
     26  N         16.9340   11.0240   56.9760 N.3    52  TYR52      -0.1241
     27  CA        16.0980   11.0800   58.1610 C.3    52  TYR52       0.1605
     28  C         16.7310   11.9950   59.1940 C.2    52  TYR52       0.2264
     29  O         17.9110   11.8640   59.5140 O.2    52  TYR52      -0.2867
     30  CB        15.9230    9.6890   58.7790 C.3    52  TYR52       0.0534
     31  CG        15.0250    9.6880   60.0030 C.ar   52  TYR52      -0.0201
     32  CD1       15.3890    9.0060   61.1650 C.ar   52  TYR52      -0.0009
     33  CD2       13.8180   10.3870   60.0040 C.ar   52  TYR52      -0.0009
     34  CE1       14.5710    9.0250   62.3020 C.ar   52  TYR52       0.0417
     35  CE2       12.9960   10.4130   61.1310 C.ar   52  TYR52       0.0417
     36  CZ        13.3780    9.7320   62.2750 C.ar   52  TYR52       0.1957
     37  OH        12.5700    9.7740   63.3910 O.3    52  TYR52      -0.2866
     38  N         20.6670   10.8600   59.3420 N.3    56  ARG56      -0.1245
     39  CA        20.5320    9.4930   58.8670 C.3    56  ARG56       0.1563
     40  C         20.3220    9.6060   57.3610 C.2    56  ARG56       0.2260
     41  O         19.1980    9.7460   56.8900 O.2    56  ARG56      -0.2867
     42  CB        19.3390    8.7980   59.5320 C.3    56  ARG56       0.0307
     43  CG        19.4790    8.6110   61.0390 C.3    56  ARG56       0.0489
     44  CD        20.7450    7.8410   61.4050 C.3    56  ARG56       0.2205
     45  NE        20.7680    6.4850   60.8580 N.pl3  56  ARG56      -0.0865
     46  CZ        21.8000    5.6520   60.9700 C.cat  56  ARG56       0.5346
     47  NH1       22.8980    6.0350   61.6110 N.pl3  56  ARG56       0.1354
     48  NH2       21.7420    4.4370   60.4430 N.pl3  56  ARG56       0.1354
     49  N         21.2400    7.8920   53.5240 N.3    58  HIS58      -0.1241
     50  CA        21.6360    6.6490   52.8690 C.3    58  HIS58       0.1621
     51  C         21.4830    6.7560   51.3630 C.2    58  HIS58       0.2264
     52  O         20.5910    7.4500   50.8750 O.2    58  HIS58      -0.2867
     53  CB        20.7770    5.5010   53.3930 C.3    58  HIS58       0.0745
     54  CG        20.8660    5.3190   54.8740 C.ar   58  HIS58       0.0817
     55  ND1       21.7750    4.4690   55.4670 N.ar   58  HIS58      -0.2268
     56  CD2       20.1860    5.9080   55.8840 C.ar   58  HIS58       0.1154
     57  CE1       21.6480    4.5410   56.7800 C.ar   58  HIS58       0.1986
     58  NE2       20.6900    5.4060   57.0590 N.ar   58  HIS58      -0.2212
     59  N          8.7640    8.4030   53.9770 N.3    98  GLY98      -0.1210
     60  CA         8.7580    7.1050   54.6130 C.3    98  GLY98       0.1956
     61  C          8.4910    7.2020   56.1020 C.2    98  GLY98       0.2612
     62  O          9.1240    7.9960   56.8090 O.2    98  GLY98      -0.2717
     63  N          7.5380    6.4080   56.5750 N.am   99  ASP99      -0.1959
     64  CA         7.2030    6.3780   57.9940 C.3    99  ASP99       0.1840
     65  C          8.4120    5.7590   58.6830 C.2    99  ASP99       0.2621
     66  O          8.8210    4.6470   58.3520 O.2    99  ASP99      -0.2715
     67  CB         5.9530    5.5180   58.2120 C.3    99  ASP99       0.1450
     68  CG         5.4810    5.5200   59.6550 C.2    99  ASP99       0.3671
     69  OD1        6.1080    4.8460   60.4950 O.co2  99  ASP99      -0.2456
     70  OD2        4.4830    6.2030   59.9450 O.co2  99  ASP99      -0.2456
     71  N          9.0000    6.4830   59.6270 N.am  100  ALA100     -0.1977
     72  CA        10.1830    5.9870   60.3220 C.3   100  ALA100      0.1597
     73  C          9.8880    4.8300   61.2620 C.2   100  ALA100      0.2287
     74  O         10.7850    4.0620   61.6100 O.2   100  ALA100     -0.2864
     75  CB        10.8490    7.1230   61.0940 C.3   100  ALA100      0.0319
     76  N          8.2310    1.9500   58.4090 N.3   103  ARG103     -0.1245
     77  CA         9.0620    1.8580   57.2160 C.3   103  ARG103      0.1563
     78  C          8.3360    1.6420   55.8890 C.2   103  ARG103      0.2260
     79  O          8.8200    0.9020   55.0290 O.2   103  ARG103     -0.2867
     80  CB        10.1150    0.7620   57.4100 C.3   103  ARG103      0.0307
     81  CG        10.9700    0.9680   58.6640 C.3   103  ARG103      0.0489
     82  CD        12.1150   -0.0230   58.7570 C.3   103  ARG103      0.2205
     83  NE        12.8880    0.2030   59.9770 N.pl3 103  ARG103     -0.0865
     84  CZ        14.0660   -0.3540   60.2340 C.cat 103  ARG103      0.5346
     85  NH1       14.6200   -1.1750   59.3530 N.pl3 103  ARG103      0.1354
     86  NH2       14.6870   -0.0880   61.3800 N.pl3 103  ARG103      0.1354
     87  N          5.9740    3.6980   52.6230 N.3   105  PHE105     -0.1241
     88  CA         5.8920    4.9830   51.9430 C.3   105  PHE105      0.1605
     89  C          4.4770    5.2070   51.4400 C.2   105  PHE105      0.2264
     90  O          4.0480    4.5870   50.4700 O.2   105  PHE105     -0.2867
     91  CB         6.9080    5.0200   50.7980 C.3   105  PHE105      0.0534
     92  CG         8.3320    4.8910   51.2680 C.ar  105  PHE105     -0.0203
     93  CD1        8.8340    3.6560   51.6680 C.ar  105  PHE105     -0.0042
     94  CD2        9.1430    6.0140   51.3850 C.ar  105  PHE105     -0.0042
     95  CE1       10.1260    3.5380   52.1850 C.ar  105  PHE105     -0.0003
     96  CE2       10.4380    5.9110   51.9020 C.ar  105  PHE105     -0.0003
     97  CZ        10.9280    4.6690   52.3020 C.ar  105  PHE105     -0.0000
@<TRIPOS>BOND
     1     6     7    1
     2     9     8    2
     3     8     7    1
     4     7    10    1
     5    10    11    1
     6    11    13   ar
     7    11    12   ar
     8    16    13   ar
     9    16    18   ar
    10    13    15   ar
    11    12    14   ar
    12    18    19   ar
    13    15    14   ar
    14    15    17   ar
    15    19    17   ar
    16    90    89    2
    17    91    92    1
    18    91    88    1
    19    52    51    2
    20    20    21    1
    21    92    94   ar
    22    92    93   ar
    23    51    50    1
    24    94    96   ar
    25    89    88    1
    26    93    95   ar
    27    96    97   ar
    28    88    87    1
    29    21    24    1
    30    21    22    1
    31    25    24    1
    32    95    97   ar
    33    50    53    1
    34    50    49    1
    35    22    23    2
    36    53    54    1
    37    59    60    1
    38     4     3    2
    39    60    61    1
    40     3     2    1
    41    54    55   ar
    42    54    56   ar
    43    79    78    2
    44    55    57   ar
    45    56    58   ar
    46    78    77    1
    47    61    63   am
    48    61    62    2
    49     2     5    1
    50     2     1    1
    51    63    64    1
    52    57    58   ar
    53    41    40    2
    54    26    27    1
    55    77    80    1
    56    77    76    1
    57    40    39    1
    58    80    81    1
    59    64    67    1
    60    64    65    1
    61    27    30    1
    62    27    28    1
    63    67    68    1
    64    66    65    2
    65    81    82    1
    66    65    71   am
    67    82    83    1
    68    30    31    1
    69    39    38    1
    70    39    42    1
    71    28    29    2
    72    85    84    1
    73    42    43    1
    74    71    72    1
    75    68    70   ar
    76    68    69   ar
    77    83    84    2
    78    31    33   ar
    79    31    32   ar
    80    33    35   ar
    81    84    86    1
    82    72    75    1
    83    72    73    1
    84    48    46    1
    85    45    46    2
    86    45    44    1
    87    46    47    1
    88    43    44    1
    89    35    36   ar
    90    32    34   ar
    91    73    74    2
    92    36    34   ar
    93    36    37    1
