@<TRIPOS>MOLECULE
tmp/1jh1A00.pdb
 126 124 0 0 0
SMALL
GASTEIGER

@<TRIPOS>ATOM
      1  N         22.1970   73.8920   58.0720 N.3    65  ASP65      -0.1239
      2  CA        22.1760   72.8470   59.0890 C.3    65  ASP65       0.1674
      3  C         23.5550   72.4340   59.5970 C.2    65  ASP65       0.2266
      4  O         23.7470   71.3130   60.0640 O.2    65  ASP65      -0.2867
      5  CB        21.3970   71.6260   58.5860 C.3    65  ASP65       0.1410
      6  CG        22.0140   71.0020   57.3580 C.2    65  ASP65       0.3668
      7  OD1       22.8550   71.6610   56.7090 O.co2  65  ASP65      -0.2456
      8  OD2       21.6420   69.8550   57.0410 O.co2  65  ASP65      -0.2456
      9  N         26.0820   71.4970   58.1630 N.3    67  SER67      -0.1217
     10  CA        26.6890   70.3910   57.4140 C.3    67  SER67       0.1889
     11  C         26.6550   70.7500   55.9240 C.2    67  SER67       0.2288
     12  O         25.8880   70.1880   55.1450 O.2    67  SER67      -0.2866
     13  CB        25.9020   69.1070   57.6590 C.3    67  SER67       0.2089
     14  OG        25.5150   69.0100   59.0170 O.3    67  SER67      -0.2183
     15  N         30.9340   64.4380   48.8140 N.3    75  ILE75      -0.1231
     16  CA        29.7340   64.1510   49.6020 C.3    75  ILE75       0.1692
     17  C         28.4710   64.2440   48.7520 C.2    75  ILE75       0.2592
     18  O         27.9100   65.3240   48.6030 O.2    75  ILE75      -0.2718
     19  CB        29.5750   65.1410   50.7660 C.3    75  ILE75       0.0266
     20  CG1       30.8410   65.1490   51.6290 C.3    75  ILE75       0.0019
     21  CG2       28.3420   64.7740   51.5860 C.3    75  ILE75       0.0020
     22  CD1       30.8190   66.1960   52.7450 C.3    75  ILE75       0.0001
     23  N         28.0080   63.1150   48.2280 N.am   76  LEU76      -0.1966
     24  CA        26.8200   63.0820   47.3780 C.3    76  LEU76       0.1728
     25  C         25.5130   63.5400   48.0400 C.2    76  LEU76       0.2616
     26  O         24.6350   64.0850   47.3690 O.2    76  LEU76      -0.2715
     27  CB        26.6500   61.6770   46.8120 C.3    76  LEU76       0.0311
     28  CG        27.8940   61.1650   46.0810 C.3    76  LEU76       0.0022
     29  CD1       27.6970   59.7040   45.7250 C.3    76  LEU76       0.0001
     30  CD2       28.1640   62.0000   44.8380 C.3    76  LEU76       0.0001
     31  N         25.3830   63.3250   49.3460 N.am   77  ALA77      -0.1963
     32  CA        24.1830   63.7260   50.0830 C.3    77  ALA77       0.1728
     33  C         24.2690   63.2200   51.5160 C.2    77  ALA77       0.2616
     34  O         25.3000   62.7040   51.9340 O.2    77  ALA77      -0.2715
     35  CB        22.9320   63.1640   49.4070 C.3    77  ALA77       0.0334
     36  N         23.1910   63.3890   52.2720 N.am   78  HIS78      -0.1959
     37  CA        23.1420   62.9160   53.6480 C.3    78  HIS78       0.1787
     38  C         21.7310   63.0090   54.2140 C.2    78  HIS78       0.2620
     39  O         20.8710   63.6810   53.6470 O.2    78  HIS78      -0.2715
     40  CB        24.1390   63.6730   54.5450 C.3    78  HIS78       0.0785
     41  CG        23.8150   65.1210   54.7510 C.ar   78  HIS78       0.0821
     42  ND1       24.3130   66.1180   53.9410 N.ar   78  HIS78      -0.2267
     43  CD2       23.0450   65.7390   55.6780 C.ar   78  HIS78       0.1154
     44  CE1       23.8640   67.2870   54.3610 C.ar   78  HIS78       0.1986
     45  NE2       23.0930   67.0840   55.4130 N.ar   78  HIS78      -0.2212
     46  N         21.5020   62.3150   55.3250 N.am   79  ALA79      -0.1963
     47  CA        20.1960   62.2850   55.9680 C.3    79  ALA79       0.1728
     48  C         20.3180   62.2870   57.4910 C.2    79  ALA79       0.2616
     49  O         21.4110   62.1240   58.0360 O.2    79  ALA79      -0.2715
     50  CB        19.4310   61.0520   55.5080 C.3    79  ALA79       0.0334
     51  N         19.1940   62.4760   58.1790 N.am   80  PHE80      -0.1974
     52  CA        19.1920   62.4950   59.6400 C.3    80  PHE80       0.1639
     53  C         18.4470   61.2920   60.2020 C.2    80  PHE80       0.2290
     54  O         17.5770   60.7280   59.5410 O.2    80  PHE80      -0.2864
     55  CB        18.5490   63.7840   60.1510 C.3    80  PHE80       0.0560
     56  CG        19.2270   65.0330   59.6680 C.ar   80  PHE80      -0.0200
     57  CD1       19.1500   65.4110   58.3300 C.ar   80  PHE80      -0.0042
     58  CD2       19.9490   65.8310   60.5480 C.ar   80  PHE80      -0.0042
     59  CE1       19.7830   66.5670   57.8780 C.ar   80  PHE80      -0.0003
     60  CE2       20.5850   66.9870   60.1040 C.ar   80  PHE80      -0.0003
     61  CZ        20.5010   67.3550   58.7670 C.ar   80  PHE80      -0.0000
     62  N         21.3770   56.3300   45.5730 N.3   110  VAL110     -0.1245
     63  CA        21.7590   57.2400   46.6440 C.3   110  VAL110      0.1561
     64  C         20.6020   57.5030   47.6060 C.2   110  VAL110      0.2260
     65  O         20.7800   57.4960   48.8240 O.2   110  VAL110     -0.2867
     66  CB        22.2690   58.5840   46.0770 C.3   110  VAL110      0.0252
     67  CG1       22.4630   59.5870   47.2030 C.3   110  VAL110      0.0019
     68  CG2       23.5850   58.3700   45.3470 C.3   110  VAL110      0.0019
     69  N         19.9120   54.8290   49.9070 N.3   113  HIS113     -0.1226
     70  CA        20.9260   54.7880   50.9610 C.3   113  HIS113      0.1752
     71  C         20.5770   55.7600   52.0890 C.2   113  HIS113      0.2595
     72  O         20.5960   55.4070   53.2670 O.2   113  HIS113     -0.2718
     73  CB        22.2930   55.1510   50.3670 C.3   113  HIS113      0.0759
     74  CG        23.4190   55.1050   51.3500 C.ar  113  HIS113      0.0818
     75  ND1       24.0820   53.9410   51.6700 N.ar  113  HIS113     -0.2268
     76  CD2       24.0070   56.0810   52.0780 C.ar  113  HIS113      0.1154
     77  CE1       25.0320   54.2010   52.5490 C.ar  113  HIS113      0.1986
     78  NE2       25.0080   55.4930   52.8140 N.ar  113  HIS113     -0.2212
     79  N         20.2530   56.9920   51.7230 N.am  114  GLU114     -0.1979
     80  CA        19.9160   57.9910   52.7160 C.3   114  GLU114      0.1602
     81  C         18.6410   57.6060   53.4680 C.2   114  GLU114      0.2287
     82  O         18.5450   57.7840   54.6840 O.2   114  GLU114     -0.2864
     83  CB        19.7430   59.3570   52.0430 C.3   114  GLU114      0.0415
     84  CG        20.9300   59.8150   51.1880 C.3   114  GLU114      0.1163
     85  CD        22.2650   59.6270   51.8790 C.2   114  GLU114      0.3649
     86  OE1       22.3120   59.7080   53.1220 O.co2 114  GLU114     -0.2457
     87  OE2       23.2710   59.4050   51.1770 O.co2 114  GLU114     -0.2457
     88  N         19.1360   55.6510   56.3190 N.3   117  HIS117     -0.1241
     89  CA        19.5560   56.4420   57.4650 C.3   117  HIS117      0.1621
     90  C         18.3750   57.0970   58.1620 C.2   117  HIS117      0.2264
     91  O         18.3640   57.2100   59.3860 O.2   117  HIS117     -0.2867
     92  CB        20.5400   57.5320   57.0450 C.3   117  HIS117      0.0745
     93  CG        21.9240   57.0350   56.7680 C.ar  117  HIS117      0.0817
     94  ND1       22.6210   56.2410   57.6530 N.ar  117  HIS117     -0.2268
     95  CD2       22.7560   57.2530   55.7240 C.ar  117  HIS117      0.1154
     96  CE1       23.8230   55.9920   57.1680 C.ar  117  HIS117      0.1986
     97  NE2       23.9310   56.5950   55.9990 N.ar  117  HIS117     -0.2212
     98  N         25.8490   52.5610   58.9190 N.3   123  HIS123     -0.1241
     99  CA        26.6440   51.9770   57.8520 C.3   123  HIS123      0.1621
    100  C         26.9880   50.5300   58.1030 C.2   123  HIS123      0.2264
    101  O         27.0660   50.0760   59.2490 O.2   123  HIS123     -0.2867
    102  CB        27.9210   52.7770   57.6260 C.3   123  HIS123      0.0745
    103  CG        27.7090   54.0020   56.8040 C.ar  123  HIS123      0.0817
    104  ND1       28.1840   55.2400   57.1740 N.ar  123  HIS123     -0.2268
    105  CD2       27.0470   54.1840   55.6380 C.ar  123  HIS123      0.1154
    106  CE1       27.8230   56.1340   56.2720 C.ar  123  HIS123      0.1986
    107  NE2       27.1320   55.5180   55.3290 N.ar  123  HIS123     -0.2212
    108  N         29.2920   52.4120   53.1990 N.3   133  PRO133     -0.2116
    109  CA        29.7340   53.8140   53.2120 C.3   133  PRO133      0.1372
    110  C         29.9680   54.5080   51.8760 C.2   133  PRO133      0.2244
    111  O         29.6040   55.6740   51.7220 O.2   133  PRO133     -0.2868
    112  CB        31.0070   53.7700   54.0580 C.3   133  PRO133      0.0268
    113  CG        30.7630   52.6320   54.9840 C.3   133  PRO133      0.0207
    114  CD        30.1680   51.5950   54.0600 C.3   133  PRO133      0.0892
    115  N         29.7580   54.8360   47.5400 N.3   135  TYR135     -0.1241
    116  CA        28.9050   54.5920   46.3830 C.3   135  TYR135      0.1605
    117  C         29.4480   53.5020   45.4750 C.2   135  TYR135      0.2264
    118  O         30.6480   53.2280   45.4610 O.2   135  TYR135     -0.2867
    119  CB        28.7750   55.8740   45.5670 C.3   135  TYR135      0.0534
    120  CG        27.8760   55.7600   44.3580 C.ar  135  TYR135     -0.0201
    121  CD1       26.4910   55.7600   44.4990 C.ar  135  TYR135     -0.0009
    122  CD2       28.4090   55.7020   43.0690 C.ar  135  TYR135     -0.0009
    123  CE1       25.6490   55.7210   43.3900 C.ar  135  TYR135      0.0417
    124  CE2       27.5760   55.6570   41.9500 C.ar  135  TYR135      0.0417
    125  CZ        26.1960   55.6740   42.1220 C.ar  135  TYR135      0.1957
    126  OH        25.3600   55.6970   41.0380 O.3   135  TYR135     -0.2866
@<TRIPOS>BOND
     1   126   125    1
     2   124   125   ar
     3   124   122   ar
     4   125   123   ar
     5   122   120   ar
     6   123   121   ar
     7   120   121   ar
     8   120   119    1
     9    30    28    1
    10    68    66    1
    11   118   117    2
    12   117   116    1
    13   119   116    1
    14    62    63    1
    15    29    28    1
    16    66    63    1
    17    66    67    1
    18    28    27    1
    19   116   115    1
    20    63    64    1
    21    27    24    1
    22    26    25    2
    23    24    25    1
    24    24    23    1
    25    64    65    2
    26    25    31   am
    27    23    17   am
    28    18    17    2
    29    17    16    1
    30    15    16    1
    31    31    32    1
    32    35    32    1
    33    16    19    1
    34    69    70    1
    35    32    33    1
    36    73    70    1
    37    73    74    1
    38    19    21    1
    39    19    20    1
    40    70    71    1
    41    87    85   ar
    42    84    85    1
    43    84    83    1
    44    74    75   ar
    45    74    76   ar
    46    33    34    2
    47    33    36   am
    48    20    22    1
    49    75    77   ar
    50   111   110    2
    51    79    71   am
    52    79    80    1
    53   110   109    1
    54    85    86   ar
    55    83    80    1
    56    76    78   ar
    57    71    72    2
    58    36    37    1
    59    77    78   ar
    60    80    81    1
    61   108   109    1
    62   108   114    1
    63   109   112    1
    64    81    82    2
    65    39    38    2
    66    37    38    1
    67    37    40    1
    68    42    44   ar
    69    42    41   ar
    70   112   113    1
    71   114   113    1
    72    38    46   am
    73    44    45   ar
    74    40    41    1
    75    41    43   ar
    76    12    11    2
    77    46    47    1
    78   107   105   ar
    79   107   106   ar
    80    45    43   ar
    81    50    47    1
    82   105   103   ar
    83    95    97   ar
    84    95    93   ar
    85    11    10    1
    86    47    48    1
    87    97    96   ar
    88   106   104   ar
    89    88    89    1
    90     7     6   ar
    91    93    92    1
    92    93    94   ar
    93   103   104   ar
    94   103   102    1
    95     8     6   ar
    96    92    89    1
    97    96    94   ar
    98     6     5    1
    99    10    13    1
   100    10     9    1
   101    89    90    1
   102    48    49    2
   103    48    51   am
   104   102    99    1
   105    13    14    1
   106    99   100    1
   107    99    98    1
   108    59    57   ar
   109    59    61   ar
   110     1     2    1
   111   100   101    2
   112    90    91    2
   113    51    52    1
   114    57    56   ar
   115     5     2    1
   116    61    60   ar
   117     2     3    1
   118    54    53    2
   119     3     4    2
   120    52    55    1
   121    52    53    1
   122    56    55    1
   123    56    58   ar
   124    60    58   ar
