@<TRIPOS>MOLECULE
tmp/1jh7A00.pdb
 140 136 0 0 0
SMALL
GASTEIGER

@<TRIPOS>ATOM
      1  N         33.1590   39.7450   24.1660 N.3    10  SER10      -0.1217
      2  CA        33.0910   40.7690   23.1530 C.3    10  SER10       0.1889
      3  C         32.2170   40.1970   22.0400 C.2    10  SER10       0.2288
      4  O         32.2450   39.0010   21.7040 O.2    10  SER10      -0.2866
      5  CB        34.4860   41.1810   22.6610 C.3    10  SER10       0.2089
      6  OG        34.9270   40.3820   21.5900 O.3    10  SER10      -0.2183
      7  N         31.0970   40.0370   18.2830 N.3    12  TRP12      -0.1241
      8  CA        31.6740   40.2140   16.9840 C.3    12  TRP12       0.1605
      9  C         30.6750   40.1150   15.8350 C.2    12  TRP12       0.2264
     10  O         29.9110   39.1580   15.7400 O.2    12  TRP12      -0.2867
     11  CB        32.7880   39.1830   16.8220 C.3    12  TRP12       0.0550
     12  CG        34.0230   39.4960   17.6180 C.ar   12  TRP12       0.0003
     13  CD1       34.1340   40.3800   18.6430 C.ar   12  TRP12       0.0946
     14  CD2       35.3160   38.9110   17.4530 C.ar   12  TRP12       0.0152
     15  NE1       35.4160   40.3910   19.1270 N.ar   12  TRP12      -0.2442
     16  CE2       36.1710   39.4980   18.4040 C.ar   12  TRP12       0.0810
     17  CE3       35.8490   37.9530   16.5660 C.ar   12  TRP12       0.0012
     18  CZ2       37.5210   39.1520   18.5290 C.ar   12  TRP12       0.0191
     19  CZ3       37.1910   37.6080   16.6790 C.ar   12  TRP12       0.0001
     20  CH2       38.0140   38.2150   17.6490 C.ar   12  TRP12       0.0015
     21  N         36.6750   40.0330   11.3290 N.3    42  HIS42      -0.1241
     22  CA        35.5670   40.4910   12.1600 C.3    42  HIS42       0.1621
     23  C         35.5670   42.0000   12.4790 C.2    42  HIS42       0.2264
     24  O         36.6200   42.6560   12.4950 O.2    42  HIS42      -0.2867
     25  CB        35.5790   39.7260   13.4870 C.3    42  HIS42       0.0745
     26  CG        36.7250   40.0910   14.3730 C.ar   42  HIS42       0.0817
     27  ND1       38.0030   39.6130   14.1760 N.ar   42  HIS42      -0.2268
     28  CD2       36.8020   40.9480   15.4200 C.ar   42  HIS42       0.1154
     29  CE1       38.8170   40.1610   15.0600 C.ar   42  HIS42       0.1986
     30  NE2       38.1130   40.9750   15.8270 N.ar   42  HIS42      -0.2212
     31  N         34.0650   44.5280   15.4790 N.3    44  THR44      -0.1218
     32  CA        33.5980   44.4650   16.8680 C.3    44  THR44       0.1862
     33  C         32.6850   45.6300   17.2820 C.2    44  THR44       0.2287
     34  O         33.1260   46.7770   17.3470 O.2    44  THR44      -0.2866
     35  CB        34.8260   44.3900   17.8340 C.3    44  THR44       0.1770
     36  OG1       35.7840   43.4600   17.3100 O.3    44  THR44      -0.2211
     37  CG2       34.4000   43.9290   19.2390 C.3    44  THR44       0.0375
     38  N         31.9290   45.3250   23.7010 N.3    47  VAL47      -0.1245
     39  CA        32.8440   44.6790   24.6270 C.3    47  VAL47       0.1561
     40  C         32.0880   44.7410   25.9480 C.2    47  VAL47       0.2260
     41  O         31.7510   45.8190   26.4220 O.2    47  VAL47      -0.2867
     42  CB        34.1770   45.4420   24.7330 C.3    47  VAL47       0.0252
     43  CG1       33.9490   46.8280   25.2650 C.3    47  VAL47       0.0019
     44  CG2       35.1280   44.6890   25.6270 C.3    47  VAL47       0.0019
     45  N         49.2520   50.7860   18.4860 N.3    82  PHE82      -0.1241
     46  CA        49.5560   49.6980   19.4120 C.3    82  PHE82       0.1605
     47  C         49.1720   48.3140   18.8620 C.2    82  PHE82       0.2264
     48  O         48.3310   48.1770   17.9790 O.2    82  PHE82      -0.2867
     49  CB        48.9300   49.9490   20.8010 C.3    82  PHE82       0.0534
     50  CG        47.4370   50.0170   20.8080 C.ar   82  PHE82      -0.0203
     51  CD1       46.7620   51.0530   20.1520 C.ar   82  PHE82      -0.0042
     52  CD2       46.7000   49.0540   21.4970 C.ar   82  PHE82      -0.0042
     53  CE1       45.3810   51.1340   20.1810 C.ar   82  PHE82      -0.0003
     54  CE2       45.3050   49.1190   21.5380 C.ar   82  PHE82      -0.0003
     55  CZ        44.6380   50.1650   20.8770 C.ar   82  PHE82      -0.0000
     56  N         47.1670   46.1950   18.8030 N.3    84  PHE84      -0.1227
     57  CA        45.8430   45.8420   18.2740 C.3    84  PHE84       0.1736
     58  C         45.3210   46.7080   17.1360 C.2    84  PHE84       0.2595
     59  O         44.4820   46.2650   16.3380 O.2    84  PHE84      -0.2718
     60  CB        44.8040   45.7810   19.4050 C.3    84  PHE84       0.0547
     61  CG        45.0240   44.6340   20.3560 C.ar   84  PHE84      -0.0202
     62  CD1       45.9070   44.7600   21.4300 C.ar   84  PHE84      -0.0042
     63  CD2       44.4170   43.3970   20.1250 C.ar   84  PHE84      -0.0042
     64  CE1       46.1880   43.6700   22.2520 C.ar   84  PHE84      -0.0003
     65  CE2       44.6940   42.3010   20.9460 C.ar   84  PHE84      -0.0003
     66  CZ        45.5830   42.4380   22.0090 C.ar   84  PHE84      -0.0000
     67  N         45.8080   47.9410   17.0820 N.am   85  GLN85      -0.1979
     68  CA        45.4450   48.8520   16.0170 C.3    85  GLN85       0.1601
     69  C         46.6790   48.9560   15.1390 C.2    85  GLN85       0.2287
     70  O         47.2970   50.0090   15.0620 O.2    85  GLN85      -0.2864
     71  CB        45.0610   50.2160   16.5830 C.3    85  GLN85       0.0394
     72  CG        43.6740   50.1970   17.2140 C.3    85  GLN85       0.0908
     73  CD        43.3110   51.5050   17.8690 C.2    85  GLN85       0.2608
     74  OE1       42.2540   51.6320   18.4830 O.2    85  GLN85      -0.2717
     75  NE2       44.1920   52.4920   17.7460 N.am   85  GLN85      -0.0878
     76  N         36.1030   49.0700   12.2520 N.3   119  HIS119     -0.1241
     77  CA        37.2000   48.6150   11.4100 C.3   119  HIS119      0.1621
     78  C         37.2800   47.0900   11.3980 C.2   119  HIS119      0.2264
     79  O         36.8060   46.4210   12.3260 O.2   119  HIS119     -0.2867
     80  CB        38.5390   49.1780   11.9080 C.3   119  HIS119      0.0745
     81  CG        38.9070   48.7400   13.2970 C.ar  119  HIS119      0.0817
     82  ND1       38.3300   49.2800   14.4290 N.ar  119  HIS119     -0.2268
     83  CD2       39.8000   47.8210   13.7370 C.ar  119  HIS119      0.1154
     84  CE1       38.8550   48.7170   15.5030 C.ar  119  HIS119      0.1986
     85  NE2       39.7490   47.8270   15.1110 N.ar  119  HIS119     -0.2212
     86  N         40.1030   44.7490   11.4760 N.3   121  SER121     -0.1217
     87  CA        41.5440   44.6330   11.6610 C.3   121  SER121      0.1889
     88  C         42.1960   43.5990   10.7610 C.2   121  SER121      0.2288
     89  O         41.6820   42.5080   10.5630 O.2   121  SER121     -0.2866
     90  CB        41.8640   44.3400   13.1160 C.3   121  SER121      0.2089
     91  OG        41.6830   45.5190   13.8760 O.3   121  SER121     -0.2183
     92  N         47.9330   42.2840   13.7880 N.3   124  TYR124     -0.1241
     93  CA        48.3350   42.6620   15.1420 C.3   124  TYR124      0.1605
     94  C         49.8180   42.3760   15.1290 C.2   124  TYR124      0.2264
     95  O         50.2250   41.2580   14.8640 O.2   124  TYR124     -0.2867
     96  CB        47.7210   41.7650   16.2100 C.3   124  TYR124      0.0534
     97  CG        46.2240   41.7700   16.3060 C.ar  124  TYR124     -0.0201
     98  CD1       45.5700   40.8030   17.0790 C.ar  124  TYR124     -0.0009
     99  CD2       45.4470   42.7120   15.6240 C.ar  124  TYR124     -0.0009
    100  CE1       44.1810   40.7570   17.1730 C.ar  124  TYR124      0.0417
    101  CE2       44.0410   42.6780   15.7140 C.ar  124  TYR124      0.0417
    102  CZ        43.4230   41.6850   16.4910 C.ar  124  TYR124      0.1957
    103  OH        42.0570   41.5630   16.5570 O.3   124  TYR124     -0.2866
    104  N         36.7110   36.9570   25.5680 N.3   161  THR161     -0.1218
    105  CA        37.9150   37.6140   25.1050 C.3   161  THR161      0.1862
    106  C         38.6220   38.4180   26.1740 C.2   161  THR161      0.2287
    107  O         38.0000   39.2110   26.8920 O.2   161  THR161     -0.2866
    108  CB        37.5810   38.5410   23.9080 C.3   161  THR161      0.1770
    109  OG1       38.7700   38.8320   23.1620 O.3   161  THR161     -0.2211
    110  CG2       36.9670   39.8390   24.4040 C.3   161  THR161      0.0375
    111  N         40.9640   41.0600   26.2630 N.3   163  THR163     -0.1203
    112  CA        41.4790   42.2100   25.5330 C.3   163  THR163      0.1994
    113  C         42.9740   42.5640   25.5420 C.2   163  THR163      0.2617
    114  O         43.4140   43.3750   24.7380 O.2   163  THR163     -0.2717
    115  CB        40.6680   43.4390   25.9460 C.3   163  THR163      0.1784
    116  OG1       40.8490   43.6870   27.3500 O.3   163  THR163     -0.2211
    117  CG2       39.1910   43.1810   25.6670 C.3   163  THR163      0.0376
    118  N         43.7630   41.9730   26.4230 N.am  164  GLU164     -0.1979
    119  CA        45.1740   42.3040   26.4430 C.3   164  GLU164      0.1602
    120  C         45.9910   41.0790   26.0730 C.2   164  GLU164      0.2287
    121  O         47.2140   41.1410   25.9880 O.2   164  GLU164     -0.2864
    122  CB        45.5630   42.8290   27.8320 C.3   164  GLU164      0.0415
    123  CG        44.7510   44.0470   28.2570 C.3   164  GLU164      0.1163
    124  CD        44.9000   44.4270   29.7320 C.2   164  GLU164      0.3649
    125  OE1       46.0440   44.6370   30.1900 O.co2 164  GLU164     -0.2457
    126  OE2       43.8650   44.5330   30.4320 O.co2 164  GLU164     -0.2457
    127  N         41.0960   34.1130   23.7700 N.3   171  TRP171     -0.1241
    128  CA        39.9740   34.4700   22.9440 C.3   171  TRP171      0.1605
    129  C         39.4270   33.1170   22.4850 C.2   171  TRP171      0.2264
    130  O         40.1810   32.2700   22.0070 O.2   171  TRP171     -0.2867
    131  CB        40.4580   35.2940   21.7380 C.3   171  TRP171      0.0550
    132  CG        41.0800   36.6320   22.0990 C.ar  171  TRP171      0.0003
    133  CD1       41.7830   36.9360   23.2370 C.ar  171  TRP171      0.0946
    134  CD2       41.0150   37.8460   21.3340 C.ar  171  TRP171      0.0152
    135  NE1       42.1470   38.2560   23.2290 N.ar  171  TRP171     -0.2442
    136  CE2       41.6920   38.8400   22.0790 C.ar  171  TRP171      0.0810
    137  CE3       40.4550   38.1840   20.0970 C.ar  171  TRP171      0.0012
    138  CZ2       41.8140   40.1700   21.6220 C.ar  171  TRP171      0.0191
    139  CZ3       40.5810   39.5100   19.6420 C.ar  171  TRP171      0.0001
    140  CH2       41.2580   40.4840   20.4100 C.ar  171  TRP171      0.0015
@<TRIPOS>BOND
     1    89    88    2
     2    88    87    1
     3    21    22    1
     4    78    77    1
     5    78    79    2
     6    77    80    1
     7    77    76    1
     8    86    87    1
     9    87    90    1
    10    80    81    1
    11    22    23    1
    12    22    25    1
    13    23    24    2
    14    90    91    1
    15    81    83   ar
    16    81    82   ar
    17    25    26    1
    18    83    85   ar
    19    92    93    1
    20    27    26   ar
    21    27    29   ar
    22    26    28   ar
    23    82    84   ar
    24    95    94    2
    25    29    30   ar
    26    70    69    2
    27    85    84   ar
    28    94    93    1
    29    69    68    1
    30    93    96    1
    31    28    30   ar
    32    31    32    1
    33    99   101   ar
    34    99    97   ar
    35   101   102   ar
    36    10     9    2
    37     9     8    1
    38    68    71    1
    39    68    67    1
    40    96    97    1
    41    97    98   ar
    42    59    58    2
    43   102   103    1
    44   102   100   ar
    45    17    19   ar
    46    17    14   ar
    47    71    72    1
    48    19    20   ar
    49    11     8    1
    50    11    12    1
    51    32    33    1
    52    32    35    1
    53     8     7    1
    54    98   100   ar
    55    67    58   am
    56    58    57    1
    57    72    73    1
    58    33    34    2
    59    36    35    1
    60    14    12   ar
    61    14    16   ar
    62    12    13   ar
    63    20    18   ar
    64    75    73   am
    65    35    37    1
    66    73    74    2
    67    48    47    2
    68    57    56    1
    69    57    60    1
    70    16    18   ar
    71    16    15   ar
    72    45    46    1
    73    13    15   ar
    74    47    46    1
    75    60    61    1
    76    46    49    1
    77   139   137   ar
    78   139   140   ar
    79   137   134   ar
    80    63    61   ar
    81    63    65   ar
    82    51    53   ar
    83    51    50   ar
    84    53    55   ar
    85    61    62   ar
    86   140   138   ar
    87    49    50    1
    88    50    52   ar
    89    55    54   ar
    90    65    66   ar
    91   134   136   ar
    92   134   132   ar
    93    62    64   ar
    94    52    54   ar
    95     6     5    1
    96   138   136   ar
    97     4     3    2
    98   131   132    1
    99   131   128    1
   100   130   129    2
   101    66    64   ar
   102     3     2    1
   103   136   135   ar
   104   132   133   ar
   105   129   128    1
   106     5     2    1
   107   128   127    1
   108     2     1    1
   109   109   108    1
   110   135   133   ar
   111    38    39    1
   112   108   110    1
   113   108   105    1
   114    39    42    1
   115    39    40    1
   116    42    43    1
   117    42    44    1
   118   114   113    2
   119   105   104    1
   120   105   106    1
   121   112   113    1
   122   112   115    1
   123   112   111    1
   124   113   118   am
   125   117   115    1
   126   115   116    1
   127    40    41    2
   128   121   120    2
   129   120   119    1
   130   106   107    2
   131   118   119    1
   132   119   122    1
   133   122   123    1
   134   123   124    1
   135   124   125   ar
   136   124   126   ar
