@<TRIPOS>MOLECULE
tmp/1jh8A00.pdb
 73 66 0 0 0
SMALL
GASTEIGER

@<TRIPOS>ATOM
      1  N         64.5700   42.9190    7.6830 N.3    78  SER78      -0.1217
      2  CA        64.6890   42.9800    9.1360 C.3    78  SER78       0.1889
      3  C         65.9020   42.1400    9.5510 C.2    78  SER78       0.2288
      4  O         66.0900   41.0350    9.0530 O.2    78  SER78      -0.2866
      5  CB        63.4630   42.4050    9.8610 C.3    78  SER78       0.2089
      6  OG        62.2580   43.1010    9.5710 O.3    78  SER78      -0.2183
      7  N         65.8030   40.0610   15.0950 N.3    82  VAL82      -0.1245
      8  CA        64.5270   40.6300   15.4770 C.3    82  VAL82       0.1561
      9  C         63.5540   39.5700   15.9670 C.2    82  VAL82       0.2260
     10  O         62.7600   39.7850   16.8680 O.2    82  VAL82      -0.2867
     11  CB        63.9520   41.5170   14.3820 C.3    82  VAL82       0.0252
     12  CG1       62.5710   42.0090   14.7810 C.3    82  VAL82       0.0019
     13  CG2       64.8780   42.7050   14.1400 C.3    82  VAL82       0.0019
     14  N         61.8880   40.2310   19.5140 N.3    86  GLN86      -0.1245
     15  CA        60.4550   40.4140   19.6000 C.3    86  GLN86       0.1566
     16  C         59.7940   39.3150   20.4310 C.2    86  GLN86       0.2260
     17  O         58.7800   39.5170   21.1220 O.2    86  GLN86      -0.2867
     18  CB        59.8530   40.5280   18.1860 C.3    86  GLN86       0.0367
     19  CG        59.9750   41.9480   17.6150 C.3    86  GLN86       0.0905
     20  CD        59.1110   42.9460   18.3850 C.2    86  GLN86       0.2608
     21  OE1       59.4100   43.2500   19.5570 O.2    86  GLN86      -0.2717
     22  NE2       58.0530   43.4660   17.7440 N.am   86  GLN86      -0.0878
     23  N         52.1040   34.3430   14.1420 N.3   172  GLU172     -0.1231
     24  CA        53.4810   33.9340   13.9450 C.3   172  GLU172      0.1699
     25  C         54.4000   35.1170   14.0950 C.2   172  GLU172      0.2592
     26  O         53.9710   36.2610   14.0740 O.2   172  GLU172     -0.2718
     27  CB        53.7410   33.2920   12.5660 C.3   172  GLU172      0.0402
     28  CG        53.0560   34.0970   11.4610 C.3   172  GLU172      0.1161
     29  CD        53.6760   35.4530   11.2940 C.2   172  GLU172      0.3649
     30  OE1       54.8790   35.6170   11.3420 O.co2 172  GLU172     -0.2457
     31  OE2       52.8010   36.4230   11.1120 O.co2 172  GLU172     -0.2457
     32  N         55.6770   34.7890   14.2400 N.am  173  LEU173     -0.1966
     33  CA        56.7570   35.7380   14.3630 C.3   173  LEU173      0.1728
     34  C         57.9980   35.0730   13.7750 C.2   173  LEU173      0.2617
     35  O         58.4240   34.0100   14.2230 O.2   173  LEU173     -0.2715
     36  CB        56.9670   36.2270   15.8260 C.3   173  LEU173      0.0311
     37  CG        58.1320   37.1880   16.0320 C.3   173  LEU173      0.0022
     38  CD1       57.7290   38.5800   15.5200 C.3   173  LEU173      0.0001
     39  CD2       58.4980   37.2470   17.5180 C.3   173  LEU173      0.0001
     40  N         58.5690   35.6640   12.7270 N.am  174  GLY174     -0.1940
     41  CA        59.7450   35.0560   12.1340 C.3   174  GLY174      0.2014
     42  C         60.1800   35.8870   10.9420 C.2   174  GLY174      0.2638
     43  O         59.3940   36.0910   10.0170 O.2   174  GLY174     -0.2714
     44  N         61.4200   36.3850   10.9790 N.am  175  MET175     -0.1976
     45  CA        61.9370   37.1960    9.8780 C.3   175  MET175      0.1605
     46  C         62.0010   36.3610    8.6030 C.2   175  MET175      0.2287
     47  O         62.4190   35.1890    8.6450 O.2   175  MET175     -0.2864
     48  CB        63.3300   37.7840   10.2220 C.3   175  MET175      0.0413
     49  CG        63.3430   38.6030   11.5130 C.3   175  MET175      0.0598
     50  SD        62.0550   39.8990   11.5710 S.3   175  MET175     -0.1393
     51  CE        60.8180   39.1770   12.6960 C.3   175  MET175      0.0692
     52  N         57.7100   42.7490    5.3700 N.3   201  ALA201     -0.1245
     53  CA        58.0560   43.8360    6.2750 C.3   201  ALA201      0.1562
     54  C         58.8560   44.9220    5.6010 C.2   201  ALA201      0.2260
     55  O         60.0640   45.0560    5.8200 O.2   201  ALA201     -0.2867
     56  CB        58.7450   43.3830    7.5600 C.3   201  ALA201      0.0290
     57  N         51.1080   43.4480   10.0520 N.3   313  LEU313     -0.1245
     58  CA        52.0640   43.2630   11.1160 C.3   313  LEU313      0.1561
     59  C         52.3300   41.7920   11.4260 C.2   313  LEU313      0.2260
     60  O         53.4770   41.3730   11.6010 O.2   313  LEU313     -0.2867
     61  CB        51.6750   44.0530   12.3910 C.3   313  LEU313      0.0270
     62  CG        52.5350   43.7380   13.6070 C.3   313  LEU313      0.0019
     63  CD1       53.9620   44.2220   13.3750 C.3   313  LEU313      0.0001
     64  CD2       51.9310   44.4660   14.8000 C.3   313  LEU313      0.0001
     65  N         51.9100   38.4810   13.9570 N.3   315  GLU315     -0.1245
     66  CA        51.8900   38.1990   15.3920 C.3   315  GLU315      0.1567
     67  C         50.5650   37.6780   15.9160 C.2   315  GLU315      0.2260
     68  O         50.4880   37.3170   17.0810 O.2   315  GLU315     -0.2867
     69  CB        52.1940   39.4570   16.2350 C.3   315  GLU315      0.0388
     70  CG        53.4040   40.2520   15.7350 C.3   315  GLU315      0.1160
     71  CD        53.7450   41.3340   16.7200 C.2   315  GLU315      0.3649
     72  OE1       53.0590   41.5920   17.6910 O.co2 315  GLU315     -0.2457
     73  OE2       54.8520   41.9520   16.4240 O.co2 315  GLU315     -0.2457
@<TRIPOS>BOND
     1    52    53    1
     2    54    55    2
     3    54    53    1
     4    53    56    1
     5     1     2    1
     6    46    47    2
     7    46    45    1
     8     4     3    2
     9     2     3    1
    10     2     5    1
    11     6     5    1
    12    45    48    1
    13    45    44    1
    14    43    42    2
    15    57    58    1
    16    48    49    1
    17    42    44   am
    18    42    41    1
    19    31    29   ar
    20    58    59    1
    21    58    61    1
    22    29    30   ar
    23    29    28    1
    24    59    60    2
    25    28    27    1
    26    49    50    1
    27    50    51    1
    28    41    40    1
    29    61    62    1
    30    27    24    1
    31    40    34   am
    32    63    62    1
    33    62    64    1
    34    34    35    2
    35    34    33    1
    36    24    25    1
    37    24    23    1
    38    65    66    1
    39    26    25    2
    40    25    32   am
    41    13    11    1
    42    32    33    1
    43    33    36    1
    44    11    12    1
    45    11     8    1
    46     7     8    1
    47    66    67    1
    48    66    69    1
    49     8     9    1
    50    38    37    1
    51    70    69    1
    52    70    71    1
    53    36    37    1
    54    67    68    2
    55     9    10    2
    56    37    39    1
    57    73    71   ar
    58    71    72   ar
    59    19    18    1
    60    19    20    1
    61    22    20   am
    62    18    15    1
    63    20    21    2
    64    14    15    1
    65    15    16    1
    66    16    17    2
