@<TRIPOS>MOLECULE
tmp/1jhaA00.pdb
 167 157 0 0 0
SMALL
GASTEIGER

@<TRIPOS>ATOM
      1  N         65.9790   37.9640    1.0650 N.3    74  VAL74      -0.1231
      2  CA        64.5470   38.1860    0.9460 C.3    74  VAL74       0.1692
      3  C         63.9150   38.9940    2.0710 C.2    74  VAL74       0.2592
      4  O         62.7140   39.2610    2.0040 O.2    74  VAL74      -0.2718
      5  CB        63.7610   36.8890    0.7570 C.3    74  VAL74       0.0266
      6  CG1       64.1400   36.2000   -0.5510 C.3    74  VAL74       0.0020
      7  CG2       63.9830   35.9650    1.9480 C.3    74  VAL74       0.0020
      8  N         64.6920   39.3560    3.0990 N.am   75  ALA75      -0.1966
      9  CA        64.1640   40.1150    4.2510 C.3    75  ALA75       0.1728
     10  C         65.0950   41.2210    4.7380 C.2    75  ALA75       0.2616
     11  O         66.2950   41.0370    4.9230 O.2    75  ALA75      -0.2715
     12  CB        63.7870   39.2090    5.4120 C.3    75  ALA75       0.0334
     13  N         64.5020   42.3680    4.9960 N.am   76  VAL76      -0.1963
     14  CA        65.2510   43.5240    5.4330 C.3    76  VAL76       0.1727
     15  C         65.3440   43.6580    6.9510 C.2    76  VAL76       0.2616
     16  O         66.0780   44.4660    7.4940 O.2    76  VAL76      -0.2715
     17  CB        64.7700   44.7660    4.6830 C.3    76  VAL76       0.0290
     18  CG1       63.3650   45.1660    5.1180 C.3    76  VAL76       0.0023
     19  CG2       65.7390   45.9220    4.8590 C.3    76  VAL76       0.0023
     20  N         64.5960   42.8520    7.6680 N.am   77  SER77      -0.1950
     21  CA        64.7260   42.9050    9.1030 C.3    77  SER77       0.1924
     22  C         65.9360   42.0530    9.4560 C.2    77  SER77       0.2314
     23  O         66.1140   40.9750    8.8930 O.2    77  SER77      -0.2863
     24  CB        63.5370   42.2710    9.8510 C.3    77  SER77       0.2116
     25  OG        62.2810   42.8240    9.4980 O.3    77  SER77      -0.2180
     26  N         65.8690   40.0220   15.0820 N.3    81  VAL81      -0.1245
     27  CA        64.5750   40.5550   15.4580 C.3    81  VAL81       0.1561
     28  C         63.6250   39.4590   15.9480 C.2    81  VAL81       0.2260
     29  O         62.8070   39.6780   16.8340 O.2    81  VAL81      -0.2867
     30  CB        63.9760   41.4060   14.3380 C.3    81  VAL81       0.0252
     31  CG1       62.5910   41.9070   14.6970 C.3    81  VAL81       0.0019
     32  CG2       64.8630   42.6130   14.0860 C.3    81  VAL81       0.0019
     33  N         61.9340   40.1940   19.5490 N.3    85  GLN85      -0.1245
     34  CA        60.4940   40.3490   19.5910 C.3    85  GLN85       0.1566
     35  C         59.8600   39.2270   20.3760 C.2    85  GLN85       0.2260
     36  O         58.8380   39.3990   21.0560 O.2    85  GLN85      -0.2867
     37  CB        59.9310   40.4360   18.1650 C.3    85  GLN85       0.0367
     38  CG        60.0980   41.8380   17.5580 C.3    85  GLN85       0.0905
     39  CD        59.2230   42.8740   18.2520 C.2    85  GLN85       0.2608
     40  OE1       59.5090   43.2730   19.3920 O.2    85  GLN85      -0.2717
     41  NE2       58.1750   43.3270   17.5740 N.am   85  GLN85      -0.0878
     42  N         52.2740   34.3190   14.3260 N.3   171  GLU171     -0.1231
     43  CA        53.6530   33.9430   14.1070 C.3   171  GLU171      0.1699
     44  C         54.6040   35.1250   14.2700 C.2   171  GLU171      0.2592
     45  O         54.1990   36.2850   14.4080 O.2   171  GLU171     -0.2718
     46  CB        53.8500   33.2980   12.7160 C.3   171  GLU171      0.0402
     47  CG        53.1680   34.0980   11.5790 C.3   171  GLU171      0.1161
     48  CD        53.6160   35.5360   11.5210 C.2   171  GLU171      0.3649
     49  OE1       54.7670   35.8810   11.2960 O.co2 171  GLU171     -0.2457
     50  OE2       52.6490   36.3940   11.7750 O.co2 171  GLU171     -0.2457
     51  N         55.8880   34.7760   14.2610 N.am  172  LEU172     -0.1966
     52  CA        56.9990   35.6910   14.3530 C.3   172  LEU172      0.1728
     53  C         58.2090   34.9590   13.7620 C.2   172  LEU172      0.2617
     54  O         58.6110   33.8970   14.2390 O.2   172  LEU172     -0.2715
     55  CB        57.2140   36.1150   15.8170 C.3   172  LEU172      0.0311
     56  CG        58.1910   37.2700   16.0490 C.3   172  LEU172      0.0022
     57  CD1       57.5880   38.6030   15.5760 C.3   172  LEU172      0.0001
     58  CD2       58.5320   37.3390   17.5390 C.3   172  LEU172      0.0001
     59  N         58.7550   35.4810   12.6680 N.am  173  GLY173     -0.1940
     60  CA        59.9000   34.8470   12.0210 C.3   173  GLY173      0.2014
     61  C         60.3260   35.6510   10.8110 C.2   173  GLY173      0.2639
     62  O         59.5820   35.7350    9.8310 O.2   173  GLY173     -0.2714
     63  N         61.5190   36.2600   10.9160 N.am  174  MET174     -0.1963
     64  CA        62.0650   37.0770    9.8540 C.3   174  MET174      0.1736
     65  C         62.1910   36.2340    8.5970 C.2   174  MET174      0.2616
     66  O         62.6950   35.1120    8.6690 O.2   174  MET174     -0.2715
     67  CB        63.4150   37.7210   10.2460 C.3   174  MET174      0.0427
     68  CG        63.3250   38.4970   11.5510 C.3   174  MET174      0.0599
     69  SD        62.0210   39.7700   11.4940 S.3   174  MET174     -0.1393
     70  CE        60.8340   39.1590   12.7340 C.3   174  MET174      0.0692
     71  N         61.7060   36.7770    7.4800 N.am  175  ALA175     -0.1963
     72  CA        61.7180   36.1190    6.1780 C.3   175  ALA175      0.1728
     73  C         60.5660   35.1290    5.9890 C.2   175  ALA175      0.2616
     74  O         60.4830   34.4510    4.9650 O.2   175  ALA175     -0.2715
     75  CB        63.0490   35.4030    5.9130 C.3   175  ALA175      0.0334
     76  N         59.6790   34.9970    6.9620 N.am  176  ASN176     -0.1958
     77  CA        58.6210   34.0030    6.8030 C.3   176  ASN176      0.1819
     78  C         57.5990   34.2190    5.6800 C.2   176  ASN176      0.2622
     79  O         56.8810   33.2900    5.2850 O.2   176  ASN176     -0.2715
     80  CB        58.0120   33.5150    8.1330 C.3   176  ASN176      0.1195
     81  CG        57.1210   34.5460    8.8000 C.2   176  ASN176      0.2630
     82  OD1       56.8390   35.6110    8.2280 O.2   176  ASN176     -0.2716
     83  ND2       56.6640   34.2190   10.0180 N.am  176  ASN176     -0.0877
     84  N         57.5170   35.4390    5.1470 N.am  177  THR177     -0.1937
     85  CA        56.5710   35.6810    4.0540 C.3   177  THR177      0.2028
     86  C         56.9940   34.9910    2.7480 C.2   177  THR177      0.2642
     87  O         56.2070   34.8390    1.7890 O.2   177  THR177     -0.2714
     88  CB        56.2620   37.1750    3.8340 C.3   177  THR177      0.1808
     89  OG1       57.4290   37.8560    3.3730 O.3   177  THR177     -0.2208
     90  CG2       55.7420   37.7950    5.1340 C.3   177  THR177      0.0379
     91  N         58.2510   34.5520    2.7210 N.am  178  THR178     -0.1950
     92  CA        58.7630   33.8450    1.5580 C.3   178  THR178      0.1897
     93  C         58.2130   32.3970    1.4960 C.2   178  THR178      0.2313
     94  O         57.5560   32.0090    0.5280 O.2   178  THR178     -0.2863
     95  CB        60.2960   33.9440    1.4870 C.3   178  THR178      0.1794
     96  OG1       60.6120   35.2750    1.1920 O.3   178  THR178     -0.2208
     97  CG2       60.8510   33.0280    0.3960 C.3   178  THR178      0.0378
     98  N         55.5590   42.4590   -0.3420 N.3   198  ILE198     -0.1231
     99  CA        56.6540   43.1850    0.2720 C.3   198  ILE198      0.1692
    100  C         57.0060   42.7420    1.6790 C.2   198  ILE198      0.2593
    101  O         58.0070   43.2140    2.2490 O.2   198  ILE198     -0.2718
    102  CB        56.6140   44.7080    0.1150 C.3   198  ILE198      0.0266
    103  CG1       55.6160   45.3670    1.0840 C.3   198  ILE198      0.0019
    104  CG2       56.3000   45.0940   -1.3150 C.3   198  ILE198      0.0020
    105  CD1       56.2410   46.4710    1.9270 C.3   198  ILE198      0.0001
    106  N         56.1960   41.8430    2.2520 N.am  199  GLY199     -0.1942
    107  CA        56.4930   41.3800    3.6060 C.3   199  GLY199      0.2014
    108  C         56.6700   42.5920    4.5380 C.2   199  GLY199      0.2638
    109  O         55.8740   43.5430    4.5350 O.2   199  GLY199     -0.2714
    110  N         57.7220   42.5780    5.3490 N.am  200  ALA200     -0.1977
    111  CA        57.9510   43.6780    6.2560 C.3   200  ALA200      0.1597
    112  C         58.7820   44.7660    5.5940 C.2   200  ALA200      0.2287
    113  O         59.9890   44.8920    5.8190 O.2   200  ALA200     -0.2864
    114  CB        58.5310   43.2320    7.5940 C.3   200  ALA200      0.0319
    115  N         59.7780   45.1660    2.4410 N.3   202  LEU202     -0.1245
    116  CA        60.8550   44.8590    1.5280 C.3   202  LEU202      0.1561
    117  C         60.8750   45.9450    0.4310 C.2   202  LEU202      0.2260
    118  O         59.8320   46.2800   -0.1130 O.2   202  LEU202     -0.2867
    119  CB        60.6740   43.4650    0.8700 C.3   202  LEU202      0.0270
    120  CG        61.8160   43.0880   -0.0870 C.3   202  LEU202      0.0019
    121  CD1       63.0960   42.7460    0.6940 C.3   202  LEU202      0.0001
    122  CD2       61.4000   41.8980   -0.9410 C.3   202  LEU202      0.0001
    123  N         63.0850   38.0760   -4.6210 N.3   210  LYS210     -0.1245
    124  CA        62.1750   37.2880   -3.8000 C.3   210  LYS210      0.1561
    125  C         61.3620   36.3050   -4.6440 C.2   210  LYS210      0.2260
    126  O         61.1540   35.1470   -4.2720 O.2   210  LYS210     -0.2867
    127  CB        61.2940   38.1860   -2.9490 C.3   210  LYS210      0.0271
    128  CG        60.5370   37.4710   -1.8460 C.3   210  LYS210      0.0035
    129  CD        59.8890   38.4700   -0.9080 C.3   210  LYS210      0.0206
    130  CE        58.8010   37.8830   -0.0250 C.3   210  LYS210      0.1093
    131  NZ        58.2630   38.8840    0.9170 N.3   210  LYS210     -0.1314
    132  N         50.4390   34.9640    6.5060 N.3   263  LEU263     -0.1245
    133  CA        51.0850   33.7430    6.9590 C.3   263  LEU263      0.1561
    134  C         50.0330   32.7220    7.3910 C.2   263  LEU263      0.2260
    135  O         50.1280   31.5270    7.1080 O.2   263  LEU263     -0.2867
    136  CB        52.0420   33.9430    8.1610 C.3   263  LEU263      0.0270
    137  CG        53.2350   34.8640    7.9250 C.3   263  LEU263      0.0019
    138  CD1       53.9130   34.5280    6.6130 C.3   263  LEU263      0.0001
    139  CD2       52.8250   36.3400    7.9790 C.3   263  LEU263      0.0001
    140  N         49.3180   44.5680    8.2120 N.3   311  ARG311     -0.1231
    141  CA        50.3240   43.6530    7.7120 C.3   311  ARG311      0.1694
    142  C         51.4560   43.4890    8.7200 C.2   311  ARG311      0.2591
    143  O         52.6290   43.4930    8.3790 O.2   311  ARG311     -0.2718
    144  CB        50.8420   44.1360    6.3690 C.3   311  ARG311      0.0321
    145  CG        51.3630   45.5650    6.4810 C.3   311  ARG311      0.0489
    146  CD        51.7990   46.1040    5.1210 C.3   311  ARG311      0.2205
    147  NE        52.1860   47.5130    5.0970 N.pl3 311  ARG311     -0.0865
    148  CZ        53.3750   48.0250    5.4450 C.cat 311  ARG311      0.5346
    149  NH1       54.3720   47.2840    5.9200 N.pl3 311  ARG311      0.1354
    150  NH2       53.5540   49.3430    5.3210 N.pl3 311  ARG311      0.1354
    151  N         51.0860   43.3690    9.9880 N.am  312  LEU312     -0.1980
    152  CA        52.0630   43.2010   11.0430 C.3   312  LEU312      0.1596
    153  C         52.3380   41.7410   11.3600 C.2   312  LEU312      0.2287
    154  O         53.4730   41.3410   11.6800 O.2   312  LEU312     -0.2864
    155  CB        51.5970   43.9450   12.3230 C.3   312  LEU312      0.0297
    156  CG        52.4100   43.6380   13.5870 C.3   312  LEU312      0.0022
    157  CD1       53.8580   44.1050   13.4100 C.3   312  LEU312      0.0001
    158  CD2       51.7770   44.3700   14.7690 C.3   312  LEU312      0.0001
    159  N         51.8890   38.4190   13.7910 N.3   314  GLU314     -0.1245
    160  CA        51.9020   38.1360   15.2330 C.3   314  GLU314      0.1567
    161  C         50.5670   37.6410   15.7840 C.2   314  GLU314      0.2260
    162  O         50.4670   37.3310   16.9670 O.2   314  GLU314     -0.2867
    163  CB        52.3180   39.3720   16.0820 C.3   314  GLU314      0.0388
    164  CG        53.4600   40.2160   15.4730 C.3   314  GLU314      0.1160
    165  CD        53.8720   41.3480   16.3830 C.2   314  GLU314      0.3649
    166  OE1       53.2340   41.6870   17.3560 O.co2 314  GLU314     -0.2457
    167  OE2       54.9900   41.9150   16.0300 O.co2 314  GLU314     -0.2457
@<TRIPOS>BOND
     1   125   126    2
     2   125   124    1
     3   123   124    1
     4   124   127    1
     5   127   128    1
     6   128   129    1
     7   104   102    1
     8   122   120    1
     9   129   130    1
    10     6     5    1
    11    98    99    1
    12   118   117    2
    13   120   121    1
    14   120   119    1
    15   130   131    1
    16   102    99    1
    17   102   103    1
    18    99   100    1
    19    97    95    1
    20   117   116    1
    21    94    93    2
    22     5     2    1
    23     5     7    1
    24   119   116    1
    25     2     1    1
    26     2     3    1
    27   103   105    1
    28    96    95    1
    29    95    92    1
    30    93    92    1
    31   116   115    1
    32    92    91    1
    33   100   101    2
    34   100   106   am
    35    87    86    2
    36     4     3    2
    37     3     8   am
    38   106   107    1
    39    91    86   am
    40    86    85    1
    41     8     9    1
    42    89    88    1
    43   107   108    1
    44    88    85    1
    45    88    90    1
    46    85    84    1
    47     9    10    1
    48     9    12    1
    49   109   108    2
    50   108   110   am
    51    17    19    1
    52    17    18    1
    53    17    14    1
    54    10    11    2
    55    10    13   am
    56    74    73    2
    57    13    14    1
    58   147   146    1
    59   147   148    2
    60   146   145    1
    61    84    78   am
    62    79    78    2
    63   150   148    1
    64   110   111    1
    65    14    15    1
    66   148   149    1
    67   112   113    2
    68   112   111    1
    69    78    77    1
    70    75    72    1
    71    73    72    1
    72    73    76   am
    73    72    71    1
    74   111   114    1
    75   144   145    1
    76   144   141    1
    77   132   133    1
    78   138   137    1
    79    77    76    1
    80    77    80    1
    81    15    16    2
    82    15    20   am
    83   133   134    1
    84   133   136    1
    85   135   134    2
    86    71    65   am
    87    20    21    1
    88   141   140    1
    89   141   142    1
    90   137   139    1
    91   137   136    1
    92    80    81    1
    93    82    81    2
    94   143   142    2
    95    65    66    2
    96    65    64    1
    97   142   151   am
    98    81    83   am
    99    23    22    2
   100    21    22    1
   101    21    24    1
   102    25    24    1
   103    62    61    2
   104    64    67    1
   105    64    63    1
   106   151   152    1
   107    67    68    1
   108    61    63   am
   109    61    60    1
   110   152   153    1
   111   152   155    1
   112    49    48   ar
   113   153   154    2
   114    69    68    1
   115    69    70    1
   116    48    47    1
   117    48    50   ar
   118    47    46    1
   119    60    59    1
   120   155   156    1
   121    59    53   am
   122    46    43    1
   123   157   156    1
   124   156   158    1
   125    53    54    2
   126    53    52    1
   127   159   160    1
   128    32    30    1
   129    43    44    1
   130    43    42    1
   131    51    44   am
   132    51    52    1
   133    44    45    2
   134    30    31    1
   135    30    27    1
   136    52    55    1
   137    26    27    1
   138   160   161    1
   139   160   163    1
   140    27    28    1
   141   164   163    1
   142   164   165    1
   143    57    56    1
   144   161   162    2
   145    55    56    1
   146    28    29    2
   147   167   165   ar
   148    56    58    1
   149   165   166   ar
   150    38    37    1
   151    38    39    1
   152    41    39   am
   153    37    34    1
   154    39    40    2
   155    33    34    1
   156    34    35    1
   157    35    36    2
