@<TRIPOS>MOLECULE
tmp/1jhoA00.pdb
 167 157 0 0 0
SMALL
GASTEIGER

@<TRIPOS>ATOM
      1  N         66.0090   37.9800    1.1860 N.3    74  VAL74      -0.1231
      2  CA        64.5680   38.1940    1.0500 C.3    74  VAL74       0.1692
      3  C         63.9040   39.0210    2.1560 C.2    74  VAL74       0.2592
      4  O         62.6950   39.3170    2.0610 O.2    74  VAL74      -0.2718
      5  CB        63.8100   36.8720    0.8590 C.3    74  VAL74       0.0266
      6  CG1       64.3300   36.1190   -0.3670 C.3    74  VAL74       0.0020
      7  CG2       63.9110   36.0040    2.1130 C.3    74  VAL74       0.0020
      8  N         64.6660   39.3680    3.2040 N.am   75  ALA75      -0.1966
      9  CA        64.1330   40.1250    4.3560 C.3    75  ALA75       0.1728
     10  C         65.0660   41.2330    4.8470 C.2    75  ALA75       0.2616
     11  O         66.2560   41.0210    5.0290 O.2    75  ALA75      -0.2715
     12  CB        63.8440   39.1690    5.5060 C.3    75  ALA75       0.0334
     13  N         64.5130   42.4130    5.1130 N.am   76  VAL76      -0.1963
     14  CA        65.3300   43.5230    5.5800 C.3    76  VAL76       0.1727
     15  C         65.5210   43.5600    7.0860 C.2    76  VAL76       0.2616
     16  O         66.3820   44.2710    7.5930 O.2    76  VAL76      -0.2715
     17  CB        64.8510   44.8710    5.0510 C.3    76  VAL76       0.0290
     18  CG1       64.9970   44.9320    3.5390 C.3    76  VAL76       0.0023
     19  CG2       63.3890   45.1100    5.4080 C.3    76  VAL76       0.0023
     20  N         64.6900   42.8340    7.8200 N.am   77  SER77      -0.1950
     21  CA        64.8550   42.8320    9.2670 C.3    77  SER77       0.1924
     22  C         66.0390   41.9490    9.6360 C.2    77  SER77       0.2314
     23  O         66.1960   40.8410    9.1310 O.2    77  SER77      -0.2863
     24  CB        63.6350   42.3180   10.0510 C.3    77  SER77       0.2116
     25  OG        62.4120   42.8870    9.6210 O.3    77  SER77      -0.2180
     26  N         66.1280   39.8710   15.1040 N.3    81  VAL81      -0.1245
     27  CA        64.8580   40.4640   15.4820 C.3    81  VAL81       0.1561
     28  C         63.8470   39.4330   15.9880 C.2    81  VAL81       0.2260
     29  O         63.0540   39.7090   16.8870 O.2    81  VAL81      -0.2867
     30  CB        64.2860   41.4090   14.4250 C.3    81  VAL81       0.0252
     31  CG1       62.9070   41.9390   14.8440 C.3    81  VAL81       0.0019
     32  CG2       65.2680   42.5670   14.1840 C.3    81  VAL81       0.0019
     33  N         62.1320   40.1820   19.4860 N.3    85  GLN85      -0.1245
     34  CA        60.6890   40.3500   19.5100 C.3    85  GLN85       0.1566
     35  C         60.0280   39.2530   20.3580 C.2    85  GLN85       0.2260
     36  O         59.0170   39.4500   21.0530 O.2    85  GLN85      -0.2867
     37  CB        60.1310   40.2840   18.0760 C.3    85  GLN85       0.0367
     38  CG        59.6950   41.6010   17.4240 C.3    85  GLN85       0.0905
     39  CD        58.8350   42.5440   18.2440 C.2    85  GLN85       0.2608
     40  OE1       59.3330   43.2100   19.1570 O.2    85  GLN85      -0.2717
     41  NE2       57.5680   42.6860   17.8630 N.am   85  GLN85      -0.0878
     42  N         52.4330   34.3490   14.4380 N.3   171  GLU171     -0.1231
     43  CA        53.8150   33.9390   14.2620 C.3   171  GLU171      0.1699
     44  C         54.7690   35.1150   14.4080 C.2   171  GLU171      0.2592
     45  O         54.3950   36.2790   14.5900 O.2   171  GLU171     -0.2718
     46  CB        54.0200   33.3040   12.8690 C.3   171  GLU171      0.0402
     47  CG        53.2930   34.0730   11.7310 C.3   171  GLU171      0.1161
     48  CD        53.6950   35.5280   11.6600 C.2   171  GLU171      0.3649
     49  OE1       54.8160   35.9070   11.3960 O.co2 171  GLU171     -0.2457
     50  OE2       52.7150   36.3390   11.9400 O.co2 171  GLU171     -0.2457
     51  N         56.0340   34.7540   14.3250 N.am  172  LEU172     -0.1966
     52  CA        57.1610   35.6640   14.3780 C.3   172  LEU172      0.1728
     53  C         58.3090   34.9140   13.7010 C.2   172  LEU172      0.2617
     54  O         58.5740   33.7480   14.0150 O.2   172  LEU172     -0.2715
     55  CB        57.4680   36.0280   15.8420 C.3   172  LEU172      0.0311
     56  CG        58.3200   37.2560   16.1020 C.3   172  LEU172      0.0022
     57  CD1       57.5880   38.5230   15.6210 C.3   172  LEU172      0.0001
     58  CD2       58.5780   37.3220   17.6110 C.3   172  LEU172      0.0001
     59  N         58.9500   35.5450   12.7190 N.am  173  GLY173     -0.1940
     60  CA        60.0430   34.8910   12.0070 C.3   173  GLY173      0.2014
     61  C         60.4400   35.6770   10.7680 C.2   173  GLY173      0.2639
     62  O         59.7620   35.6320    9.7340 O.2   173  GLY173     -0.2714
     63  N         61.5470   36.4120   10.8940 N.am  174  MET174     -0.1963
     64  CA        62.0550   37.2040    9.7880 C.3   174  MET174      0.1736
     65  C         62.2190   36.3090    8.5720 C.2   174  MET174      0.2616
     66  O         62.7560   35.1840    8.6850 O.2   174  MET174     -0.2715
     67  CB        63.4100   37.8580   10.1520 C.3   174  MET174      0.0427
     68  CG        63.3770   38.5590   11.5020 C.3   174  MET174      0.0599
     69  SD        62.0070   39.7450   11.6200 S.3   174  MET174     -0.1393
     70  CE        61.0300   39.1040   13.0150 C.3   174  MET174      0.0692
     71  N         61.7600   36.8080    7.4250 N.am  175  ALA175     -0.1963
     72  CA        61.8280   36.0890    6.1410 C.3   175  ALA175      0.1728
     73  C         60.6620   35.1080    5.9100 C.2   175  ALA175      0.2616
     74  O         60.5650   34.4810    4.8500 O.2   175  ALA175     -0.2715
     75  CB        63.1790   35.3910    5.9280 C.3   175  ALA175      0.0334
     76  N         59.7680   34.9870    6.9010 N.am  176  ASN176     -0.1958
     77  CA        58.6470   34.0620    6.8080 C.3   176  ASN176      0.1819
     78  C         57.6310   34.2840    5.6950 C.2   176  ASN176      0.2622
     79  O         56.8850   33.3630    5.3390 O.2   176  ASN176     -0.2715
     80  CB        58.0320   33.6070    8.1610 C.3   176  ASN176      0.1195
     81  CG        57.1640   34.6300    8.8710 C.2   176  ASN176      0.2630
     82  OD1       56.9280   35.7450    8.3730 O.2   176  ASN176     -0.2716
     83  ND2       56.6820   34.2300   10.0490 N.am  176  ASN176     -0.0877
     84  N         57.5760   35.4930    5.1280 N.am  177  THR177     -0.1937
     85  CA        56.6070   35.6940    4.0480 C.3   177  THR177      0.2028
     86  C         57.0440   35.0020    2.7520 C.2   177  THR177      0.2642
     87  O         56.2680   34.8310    1.7910 O.2   177  THR177     -0.2714
     88  CB        56.2290   37.1700    3.8360 C.3   177  THR177      0.1808
     89  OG1       57.3590   37.8960    3.3950 O.3   177  THR177     -0.2208
     90  CG2       55.7440   37.7650    5.1540 C.3   177  THR177      0.0379
     91  N         58.3110   34.5900    2.7520 N.am  178  THR178     -0.1950
     92  CA        58.8610   33.8880    1.6170 C.3   178  THR178      0.1897
     93  C         58.3180   32.4480    1.5200 C.2   178  THR178      0.2313
     94  O         57.7280   32.0760    0.5050 O.2   178  THR178     -0.2863
     95  CB        60.4000   33.9730    1.5760 C.3   178  THR178      0.1794
     96  OG1       60.7510   35.3170    1.3750 O.3   178  THR178     -0.2208
     97  CG2       60.9450   33.1320    0.4200 C.3   178  THR178      0.0378
     98  N         55.6910   42.4580   -0.3430 N.3   198  ILE198     -0.1231
     99  CA        56.8190   43.1200    0.2790 C.3   198  ILE198      0.1692
    100  C         57.0780   42.6840    1.7100 C.2   198  ILE198      0.2593
    101  O         58.0230   43.1790    2.3310 O.2   198  ILE198     -0.2718
    102  CB        56.7790   44.6400    0.2020 C.3   198  ILE198      0.0266
    103  CG1       55.5250   45.1070    0.9130 C.3   198  ILE198      0.0019
    104  CG2       56.7830   45.1040   -1.2440 C.3   198  ILE198      0.0020
    105  CD1       55.7060   46.3820    1.7240 C.3   198  ILE198      0.0001
    106  N         56.2560   41.7880    2.2500 N.am  199  GLY199     -0.1942
    107  CA        56.5280   41.3630    3.6180 C.3   199  GLY199      0.2014
    108  C         56.7300   42.5680    4.5260 C.2   199  GLY199      0.2638
    109  O         55.9770   43.5450    4.4920 O.2   199  GLY199     -0.2714
    110  N         57.7670   42.5190    5.3520 N.am  200  ALA200     -0.1977
    111  CA        57.9900   43.6200    6.2540 C.3   200  ALA200      0.1597
    112  C         58.8260   44.7330    5.6280 C.2   200  ALA200      0.2287
    113  O         60.0010   44.9210    5.9530 O.2   200  ALA200     -0.2864
    114  CB        58.5630   43.1640    7.5900 C.3   200  ALA200      0.0319
    115  N         59.9020   45.1170    2.4380 N.3   202  LEU202     -0.1245
    116  CA        60.9930   44.8160    1.5350 C.3   202  LEU202      0.1561
    117  C         60.9630   45.8750    0.4300 C.2   202  LEU202      0.2260
    118  O         59.8970   46.1360   -0.1150 O.2   202  LEU202     -0.2867
    119  CB        60.8190   43.4320    0.8980 C.3   202  LEU202      0.0270
    120  CG        61.9780   43.0440   -0.0190 C.3   202  LEU202      0.0019
    121  CD1       63.2080   42.6740    0.8110 C.3   202  LEU202      0.0001
    122  CD2       61.5580   41.8500   -0.8620 C.3   202  LEU202      0.0001
    123  N         63.2360   38.0720   -4.4950 N.3   210  LYS210     -0.1245
    124  CA        62.3260   37.2740   -3.6910 C.3   210  LYS210      0.1561
    125  C         61.5040   36.3300   -4.5770 C.2   210  LYS210      0.2260
    126  O         61.2640   35.1650   -4.2450 O.2   210  LYS210     -0.2867
    127  CB        61.4660   38.1800   -2.8180 C.3   210  LYS210      0.0271
    128  CG        60.6460   37.4630   -1.7560 C.3   210  LYS210      0.0035
    129  CD        59.9420   38.4620   -0.8460 C.3   210  LYS210      0.0206
    130  CE        58.9130   37.8370    0.0750 C.3   210  LYS210      0.1093
    131  NZ        58.1990   38.8510    0.8900 N.3   210  LYS210     -0.1314
    132  N         50.5540   34.9970    6.5870 N.3   263  LEU263     -0.1245
    133  CA        51.2290   33.8100    7.0500 C.3   263  LEU263      0.1561
    134  C         50.1940   32.7700    7.4450 C.2   263  LEU263      0.2260
    135  O         50.3210   31.5930    7.1180 O.2   263  LEU263     -0.2867
    136  CB        52.1340   34.0740    8.2710 C.3   263  LEU263      0.0270
    137  CG        53.3650   34.9220    8.0060 C.3   263  LEU263      0.0019
    138  CD1       54.0040   34.5470    6.6830 C.3   263  LEU263      0.0001
    139  CD2       53.0150   36.4050    8.0410 C.3   263  LEU263      0.0001
    140  N         49.4400   44.4880    8.1400 N.3   311  ARG311     -0.1231
    141  CA        50.4710   43.5910    7.6450 C.3   311  ARG311      0.1694
    142  C         51.5810   43.4480    8.6710 C.2   311  ARG311      0.2591
    143  O         52.7580   43.4840    8.3450 O.2   311  ARG311     -0.2718
    144  CB        51.0110   44.0750    6.2940 C.3   311  ARG311      0.0321
    145  CG        51.3660   45.5630    6.3350 C.3   311  ARG311      0.0489
    146  CD        51.9050   46.0790    5.0050 C.3   311  ARG311      0.2205
    147  NE        52.2850   47.5010    5.0070 N.pl3 311  ARG311     -0.0865
    148  CZ        53.4520   48.0080    5.4240 C.cat 311  ARG311      0.5346
    149  NH1       54.4190   47.2520    5.9270 N.pl3 311  ARG311      0.1354
    150  NH2       53.6510   49.3170    5.3420 N.pl3 311  ARG311      0.1354
    151  N         51.1990   43.2870    9.9310 N.am  312  LEU312     -0.1980
    152  CA        52.1720   43.1210   10.9790 C.3   312  LEU312      0.1596
    153  C         52.4150   41.6470   11.3230 C.2   312  LEU312      0.2287
    154  O         53.5370   41.2550   11.6630 O.2   312  LEU312     -0.2864
    155  CB        51.7190   43.8600   12.2640 C.3   312  LEU312      0.0297
    156  CG        52.5670   43.5920   13.5320 C.3   312  LEU312      0.0022
    157  CD1       54.0320   43.9820   13.3150 C.3   312  LEU312      0.0001
    158  CD2       52.0020   44.4170   14.6900 C.3   312  LEU312      0.0001
    159  N         51.9740   38.3720   13.8380 N.3   314  GLU314     -0.1245
    160  CA        52.0200   38.1140   15.2940 C.3   314  GLU314      0.1567
    161  C         50.6730   37.6390   15.8660 C.2   314  GLU314      0.2260
    162  O         50.5400   37.3220   17.0530 O.2   314  GLU314     -0.2867
    163  CB        52.4380   39.3670   16.1180 C.3   314  GLU314      0.0388
    164  CG        53.6430   40.1710   15.5870 C.3   314  GLU314      0.1160
    165  CD        54.0010   41.2850   16.5400 C.2   314  GLU314      0.3649
    166  OE1       53.3040   41.5910   17.4860 O.co2 314  GLU314     -0.2457
    167  OE2       55.1370   41.8750   16.2650 O.co2 314  GLU314     -0.2457
@<TRIPOS>BOND
     1   125   126    2
     2   125   124    1
     3   123   124    1
     4   124   127    1
     5   127   128    1
     6   128   129    1
     7   104   102    1
     8   122   120    1
     9   129   130    1
    10     6     5    1
    11    98    99    1
    12   118   117    2
    13   120   121    1
    14   120   119    1
    15   130   131    1
    16   102    99    1
    17   102   103    1
    18    99   100    1
    19    97    95    1
    20   117   116    1
    21    94    93    2
    22     5     2    1
    23     5     7    1
    24   119   116    1
    25   103   105    1
    26     2     1    1
    27     2     3    1
    28    96    95    1
    29    93    92    1
    30   116   115    1
    31    95    92    1
    32    92    91    1
    33   100   106   am
    34   100   101    2
    35    87    86    2
    36     4     3    2
    37     3     8   am
    38   106   107    1
    39    91    86   am
    40    86    85    1
    41     8     9    1
    42    89    88    1
    43    18    17    1
    44   107   108    1
    45    88    85    1
    46    88    90    1
    47    85    84    1
    48     9    10    1
    49     9    12    1
    50   109   108    2
    51   108   110   am
    52    10    11    2
    53    10    13   am
    54    74    73    2
    55   146   147    1
    56   146   145    1
    57   147   148    2
    58    17    19    1
    59    17    14    1
    60    13    14    1
    61    84    78   am
    62    79    78    2
    63   150   148    1
    64   110   111    1
    65   148   149    1
    66    14    15    1
    67   112   113    2
    68   112   111    1
    69    78    77    1
    70    73    72    1
    71    73    76   am
    72    75    72    1
    73    72    71    1
    74   111   114    1
    75   144   145    1
    76   144   141    1
    77   132   133    1
    78   138   137    1
    79    77    76    1
    80    77    80    1
    81   133   134    1
    82   133   136    1
    83    15    16    2
    84    15    20   am
    85   135   134    2
    86    71    65   am
    87   141   140    1
    88   141   142    1
    89    20    21    1
    90   137   139    1
    91   137   136    1
    92    80    81    1
    93   143   142    2
    94    82    81    2
    95    65    66    2
    96    65    64    1
    97   142   151   am
    98    81    83   am
    99    23    22    2
   100    21    22    1
   101    21    24    1
   102    25    24    1
   103    62    61    2
   104    64    67    1
   105    64    63    1
   106   151   152    1
   107    67    68    1
   108    61    63   am
   109    61    60    1
   110   152   153    1
   111   152   155    1
   112   153   154    2
   113    49    48   ar
   114    68    69    1
   115    69    70    1
   116    48    47    1
   117    48    50   ar
   118    47    46    1
   119    60    59    1
   120   155   156    1
   121    59    53   am
   122    46    43    1
   123   157   156    1
   124   156   158    1
   125    53    54    2
   126    53    52    1
   127   159   160    1
   128    32    30    1
   129    43    44    1
   130    43    42    1
   131    51    52    1
   132    51    44   am
   133    52    55    1
   134    44    45    2
   135    30    31    1
   136    30    27    1
   137    26    27    1
   138   160   161    1
   139   160   163    1
   140    27    28    1
   141   164   163    1
   142   164   165    1
   143    57    56    1
   144    55    56    1
   145   161   162    2
   146    28    29    2
   147    56    58    1
   148   167   165   ar
   149   165   166   ar
   150    38    37    1
   151    38    39    1
   152    41    39   am
   153    37    34    1
   154    39    40    2
   155    33    34    1
   156    34    35    1
   157    35    36    2
