@<TRIPOS>MOLECULE
tmp/1jhoA01.pdb
 120 114 0 0 0
SMALL
GASTEIGER

@<TRIPOS>ATOM
      1  N         52.4330   34.3490   14.4380 N.3   171  GLU171     -0.1245
      2  CA        53.8150   33.9390   14.2620 C.3   171  GLU171      0.1567
      3  C         54.7690   35.1150   14.4080 C.2   171  GLU171      0.2260
      4  O         54.3950   36.2790   14.5900 O.2   171  GLU171     -0.2867
      5  CB        54.0200   33.3040   12.8690 C.3   171  GLU171      0.0388
      6  CG        53.2930   34.0730   11.7310 C.3   171  GLU171      0.1160
      7  CD        53.6950   35.5280   11.6600 C.2   171  GLU171      0.3649
      8  OE1       54.8160   35.9070   11.3960 O.co2 171  GLU171     -0.2457
      9  OE2       52.7150   36.3390   11.9400 O.co2 171  GLU171     -0.2457
     10  N         59.7680   34.9870    6.9010 N.3   176  ASN176     -0.1225
     11  CA        58.6470   34.0620    6.8080 C.3   176  ASN176      0.1785
     12  C         57.6310   34.2840    5.6950 C.2   176  ASN176      0.2597
     13  O         56.8850   33.3630    5.3390 O.2   176  ASN176     -0.2718
     14  CB        58.0320   33.6070    8.1610 C.3   176  ASN176      0.1169
     15  CG        57.1640   34.6300    8.8710 C.2   176  ASN176      0.2627
     16  OD1       56.9280   35.7450    8.3730 O.2   176  ASN176     -0.2716
     17  ND2       56.6820   34.2300   10.0490 N.am  176  ASN176     -0.0877
     18  N         57.5760   35.4930    5.1280 N.am  177  THR177     -0.1953
     19  CA        56.6070   35.6940    4.0480 C.3   177  THR177      0.1897
     20  C         57.0440   35.0020    2.7520 C.2   177  THR177      0.2313
     21  O         56.2680   34.8310    1.7910 O.2   177  THR177     -0.2863
     22  CB        56.2290   37.1700    3.8360 C.3   177  THR177      0.1794
     23  OG1       57.3590   37.8960    3.3950 O.3   177  THR177     -0.2208
     24  CG2       55.7440   37.7650    5.1540 C.3   177  THR177      0.0378
     25  N         56.2560   41.7880    2.2500 N.3   199  GLY199     -0.1210
     26  CA        56.5280   41.3630    3.6180 C.3   199  GLY199      0.1956
     27  C         56.7300   42.5680    4.5260 C.2   199  GLY199      0.2611
     28  O         55.9770   43.5450    4.4920 O.2   199  GLY199     -0.2717
     29  N         57.7670   42.5190    5.3520 N.am  200  ALA200     -0.1979
     30  CA        57.9900   43.6200    6.2540 C.3   200  ALA200      0.1597
     31  C         58.8260   44.7330    5.6280 C.2   200  ALA200      0.2287
     32  O         60.0010   44.9210    5.9530 O.2   200  ALA200     -0.2864
     33  CB        58.5630   43.1640    7.5900 C.3   200  ALA200      0.0319
     34  N         44.7850   34.9010   11.1990 N.3   260  ASP260     -0.1225
     35  CA        45.4010   36.2100   11.2990 C.3   260  ASP260      0.1805
     36  C         45.5200   36.8000    9.8920 C.2   260  ASP260      0.2598
     37  O         44.5060   37.0730    9.2460 O.2   260  ASP260     -0.2718
     38  CB        46.7240   36.1980   12.1170 C.3   260  ASP260      0.1424
     39  CG        47.3260   37.5770   12.3720 C.2   260  ASP260      0.3668
     40  OD1       46.6690   38.5740   12.5170 O.co2 260  ASP260     -0.2456
     41  OD2       48.6290   37.6060   12.3890 O.co2 260  ASP260     -0.2456
     42  N         46.7560   36.9360    9.4120 N.am  261  GLY261     -0.1942
     43  CA        47.0550   37.4690    8.0940 C.3   261  GLY261      0.2014
     44  C         47.5910   36.4470    7.0880 C.2   261  GLY261      0.2639
     45  O         47.2590   35.2620    7.1090 O.2   261  GLY261     -0.2714
     46  N         48.4420   36.9470    6.2050 N.am  262  PHE262     -0.1959
     47  CA        49.0190   36.1830    5.1280 C.3   262  PHE262      0.1771
     48  C         49.7050   34.9090    5.5650 C.2   262  PHE262      0.2619
     49  O         49.5260   33.8690    4.9460 O.2   262  PHE262     -0.2715
     50  CB        50.0040   37.0510    4.3060 C.3   262  PHE262      0.0574
     51  CG        50.4240   36.3650    3.0290 C.ar  262  PHE262     -0.0200
     52  CD1       51.7460   35.9690    2.8000 C.ar  262  PHE262     -0.0042
     53  CD2       49.4640   36.0850    2.0560 C.ar  262  PHE262     -0.0042
     54  CE1       52.0980   35.3310    1.6110 C.ar  262  PHE262     -0.0003
     55  CE2       49.7970   35.4450    0.8620 C.ar  262  PHE262     -0.0003
     56  CZ        51.1220   35.0680    0.6470 C.ar  262  PHE262     -0.0000
     57  N         50.5540   34.9970    6.5870 N.am  263  LEU263     -0.1977
     58  CA        51.2290   33.8100    7.0500 C.3   263  LEU263      0.1596
     59  C         50.1940   32.7700    7.4450 C.2   263  LEU263      0.2287
     60  O         50.3210   31.5930    7.1180 O.2   263  LEU263     -0.2864
     61  CB        52.1340   34.0740    8.2710 C.3   263  LEU263      0.0297
     62  CG        53.3650   34.9220    8.0060 C.3   263  LEU263      0.0022
     63  CD1       54.0040   34.5470    6.6830 C.3   263  LEU263      0.0001
     64  CD2       53.0150   36.4050    8.0410 C.3   263  LEU263      0.0001
     65  N         41.0360   39.5380    9.4700 N.3   286  HIS286     -0.1241
     66  CA        41.2010   40.6970    8.6370 C.3   286  HIS286      0.1621
     67  C         41.7560   40.3730    7.2710 C.2   286  HIS286      0.2264
     68  O         42.2060   39.2590    7.0250 O.2   286  HIS286     -0.2867
     69  CB        42.0720   41.7380    9.3500 C.3   286  HIS286      0.0745
     70  CG        43.5220   41.4320    9.2640 C.ar  286  HIS286      0.0817
     71  ND1       44.0490   40.2620    9.7970 N.ar  286  HIS286     -0.2268
     72  CD2       44.5260   42.1370    8.6880 C.ar  286  HIS286      0.1154
     73  CE1       45.3650   40.2930    9.5600 C.ar  286  HIS286      0.1986
     74  NE2       45.6790   41.3950    8.8770 N.ar  286  HIS286     -0.2212
     75  N         44.6200   40.9200    5.0070 N.3   288  SER288     -0.1217
     76  CA        46.0170   41.3260    4.9650 C.3   288  SER288      0.1889
     77  C         46.3850   42.1540    3.7220 C.2   288  SER288      0.2288
     78  O         45.9270   41.8920    2.5980 O.2   288  SER288     -0.2866
     79  CB        46.9240   40.1040    5.1090 C.3   288  SER288      0.2089
     80  OG        48.2680   40.3940    4.7560 O.3   288  SER288     -0.2183
     81  N         49.1110   42.0850    2.2790 N.3   290  GLU290     -0.1245
     82  CA        50.0690   41.3510    1.4800 C.3   290  GLU290      0.1567
     83  C         49.4570   41.0640    0.1000 C.2   290  GLU290      0.2260
     84  O         48.3010   40.6560   -0.0160 O.2   290  GLU290     -0.2867
     85  CB        50.6450   40.0810    2.1970 C.3   290  GLU290      0.0388
     86  CG        51.7480   39.3730    1.3930 C.3   290  GLU290      0.1160
     87  CD        53.1980   39.6810    1.7090 C.2   290  GLU290      0.3649
     88  OE1       54.0650   38.8680    1.4890 O.co2 290  GLU290     -0.2457
     89  OE2       53.4640   40.9000    2.1790 O.co2 290  GLU290     -0.2457
     90  N         46.2290   45.8850    7.3460 N.3   310  MET310     -0.1230
     91  CA        47.2370   45.4540    8.2930 C.3   310  MET310      0.1702
     92  C         48.1890   44.4270    7.6810 C.2   310  MET310      0.2592
     93  O         47.8160   43.6160    6.8020 O.2   310  MET310     -0.2718
     94  CB        46.6160   44.9830    9.6130 C.3   310  MET310      0.0401
     95  CG        46.1100   46.1340   10.4640 C.3   310  MET310      0.0596
     96  SD        45.0310   45.5680   11.8100 S.3   310  MET310     -0.1393
     97  CE        45.9970   44.1940   12.4740 C.3   310  MET310      0.0692
     98  N         49.4400   44.4880    8.1400 N.am  311  ARG311     -0.1966
     99  CA        50.4710   43.5910    7.6450 C.3   311  ARG311      0.1729
    100  C         51.5810   43.4480    8.6710 C.2   311  ARG311      0.2616
    101  O         52.7580   43.4840    8.3450 O.2   311  ARG311     -0.2715
    102  CB        51.0110   44.0750    6.2940 C.3   311  ARG311      0.0348
    103  CG        51.3660   45.5630    6.3350 C.3   311  ARG311      0.0492
    104  CD        51.9050   46.0790    5.0050 C.3   311  ARG311      0.2205
    105  NE        52.2850   47.5010    5.0070 N.pl3 311  ARG311     -0.0865
    106  CZ        53.4520   48.0080    5.4240 C.cat 311  ARG311      0.5346
    107  NH1       54.4190   47.2520    5.9270 N.pl3 311  ARG311      0.1354
    108  NH2       53.6510   49.3170    5.3420 N.pl3 311  ARG311      0.1354
    109  N         51.1990   43.2870    9.9310 N.am  312  LEU312     -0.1963
    110  CA        52.1720   43.1210   10.9790 C.3   312  LEU312      0.1728
    111  C         52.4150   41.6470   11.3230 C.2   312  LEU312      0.2616
    112  O         53.5370   41.2550   11.6630 O.2   312  LEU312     -0.2715
    113  CB        51.7190   43.8600   12.2640 C.3   312  LEU312      0.0311
    114  CG        52.5670   43.5920   13.5320 C.3   312  LEU312      0.0022
    115  CD1       54.0320   43.9820   13.3150 C.3   312  LEU312      0.0001
    116  CD2       52.0020   44.4170   14.6900 C.3   312  LEU312      0.0001
    117  N         51.3390   40.8440   11.2970 N.am  313  GLY313     -0.1955
    118  CA        51.4300   39.4560   11.7140 C.3   313  GLY313      0.1869
    119  C         51.3400   39.4050   13.2460 C.2   313  GLY313      0.2309
    120  O         50.7180   40.2950   13.8720 O.2   313  GLY313     -0.2863
@<TRIPOS>BOND
     1    84    83    2
     2    83    82    1
     3    56    55   ar
     4    56    54   ar
     5    55    53   ar
     6    86    87    1
     7    86    85    1
     8    82    85    1
     9    82    81    1
    10    88    87   ar
    11    54    52   ar
    12    87    89   ar
    13    21    20    2
    14    53    51   ar
    15    25    26    1
    16    78    77    2
    17    20    19    1
    18    52    51   ar
    19    51    50    1
    20    23    22    1
    21    26    27    1
    22    77    76    1
    23    22    19    1
    24    22    24    1
    25    19    18    1
    26    50    47    1
    27    28    27    2
    28    27    29   am
    29    80    79    1
    30    49    48    2
    31    76    75    1
    32    76    79    1
    33   104   105    1
    34   104   103    1
    35   105   106    2
    36    47    48    1
    37    47    46    1
    38    18    12   am
    39    13    12    2
    40   108   106    1
    41    29    30    1
    42   106   107    1
    43    48    57   am
    44    31    32    2
    45    31    30    1
    46    12    11    1
    47    46    44   am
    48    30    33    1
    49   102   103    1
    50   102    99    1
    51    57    58    1
    52    63    62    1
    53    93    92    2
    54    11    10    1
    55    11    14    1
    56    68    67    2
    57    58    59    1
    58    58    61    1
    59    44    45    2
    60    44    43    1
    61    60    59    2
    62    67    66    1
    63    90    91    1
    64    99    98    1
    65    99   100    1
    66    92    98   am
    67    92    91    1
    68    62    64    1
    69    62    61    1
    70    43    42    1
    71    14    15    1
    72    91    94    1
    73   101   100    2
    74    16    15    2
    75    66    69    1
    76    66    65    1
    77   100   109   am
    78    72    74   ar
    79    72    70   ar
    80    15    17   am
    81    74    73   ar
    82    37    36    2
    83    70    69    1
    84    70    71   ar
    85    42    36   am
    86    73    71   ar
    87    94    95    1
    88    36    35    1
    89   109   110    1
    90    95    96    1
    91   110   111    1
    92   110   113    1
    93    34    35    1
    94   117   111   am
    95   117   118    1
    96    35    38    1
    97   111   112    2
    98     8     7   ar
    99     7     6    1
   100     7     9   ar
   101   118   119    1
   102     6     5    1
   103    96    97    1
   104    38    39    1
   105   113   114    1
   106    39    41   ar
   107    39    40   ar
   108     5     2    1
   109   119   120    2
   110   115   114    1
   111   114   116    1
   112     2     3    1
   113     2     1    1
   114     3     4    2
