@<TRIPOS>MOLECULE
tmp/1jhpA00.pdb
 81 74 0 0 0
SMALL
GASTEIGER

@<TRIPOS>ATOM
      1  N         64.5360   42.8980    7.6450 N.3    77  SER77      -0.1217
      2  CA        64.6560   42.9640    9.0960 C.3    77  SER77       0.1889
      3  C         65.8690   42.1000    9.4450 C.2    77  SER77       0.2288
      4  O         66.0520   41.0420    8.8410 O.2    77  SER77      -0.2866
      5  CB        63.4730   42.3220    9.8270 C.3    77  SER77       0.2089
      6  OG        62.2610   43.0270    9.6680 O.3    77  SER77      -0.2183
      7  N         65.8610   39.9260   15.0860 N.3    81  VAL81      -0.1245
      8  CA        64.6000   40.4800   15.5220 C.3    81  VAL81       0.1561
      9  C         63.6340   39.4030   16.0320 C.2    81  VAL81       0.2260
     10  O         62.8340   39.6290   16.9460 O.2    81  VAL81      -0.2867
     11  CB        63.9720   41.3850   14.4570 C.3    81  VAL81       0.0252
     12  CG1       62.5560   41.7810   14.8620 C.3    81  VAL81       0.0019
     13  CG2       64.7900   42.6610   14.3300 C.3    81  VAL81       0.0019
     14  N         64.5740   38.8850   19.6060 N.3    84  ILE84      -0.1231
     15  CA        64.2880   40.1020   20.3590 C.3    84  ILE84       0.1692
     16  C         62.7850   40.2710   20.6260 C.2    84  ILE84       0.2591
     17  O         62.3430   40.3930   21.7800 O.2    84  ILE84      -0.2718
     18  CB        64.8740   41.3440   19.6850 C.3    84  ILE84       0.0266
     19  CG1       66.3560   41.4700   20.0080 C.3    84  ILE84       0.0019
     20  CG2       64.1500   42.5870   20.1880 C.3    84  ILE84       0.0020
     21  CD1       67.2590   40.6730   19.0780 C.3    84  ILE84       0.0001
     22  N         62.0270   40.2780   19.5240 N.am   85  GLN85      -0.1979
     23  CA        60.5890   40.4310   19.5210 C.3    85  GLN85       0.1601
     24  C         59.9410   39.3410   20.3550 C.2    85  GLN85       0.2287
     25  O         58.9600   39.5670   21.0640 O.2    85  GLN85      -0.2864
     26  CB        60.0170   40.3800   18.0870 C.3    85  GLN85       0.0394
     27  CG        59.4570   41.7020   17.5130 C.3    85  GLN85       0.0908
     28  CD        58.5720   42.5100   18.4480 C.2    85  GLN85       0.2608
     29  OE1       59.0340   43.0110   19.4830 O.2    85  GLN85      -0.2717
     30  NE2       57.3130   42.6800   18.0690 N.am   85  GLN85      -0.0878
     31  N         52.1800   34.3540   14.3080 N.3   171  GLU171     -0.1231
     32  CA        53.5450   33.9390   14.0920 C.3   171  GLU171      0.1699
     33  C         54.5300   35.0760   14.2590 C.2   171  GLU171      0.2592
     34  O         54.1570   36.2450   14.3540 O.2   171  GLU171     -0.2718
     35  CB        53.7640   33.2030   12.7480 C.3   171  GLU171      0.0402
     36  CG        53.2170   33.9670   11.5300 C.3   171  GLU171      0.1161
     37  CD        53.8120   35.3450   11.3920 C.2   171  GLU171      0.3649
     38  OE1       55.0030   35.5390   11.2940 O.co2 171  GLU171     -0.2457
     39  OE2       52.9220   36.3070   11.4040 O.co2 171  GLU171     -0.2457
     40  N         55.7980   34.6850   14.2920 N.am  172  LEU172     -0.1966
     41  CA        56.9180   35.5780   14.4410 C.3   172  LEU172      0.1728
     42  C         58.1730   34.8980   13.8840 C.2   172  LEU172      0.2617
     43  O         58.6490   33.8990   14.4230 O.2   172  LEU172     -0.2715
     44  CB        57.1190   36.0250   15.9100 C.3   172  LEU172      0.0311
     45  CG        58.2110   37.0930   16.1000 C.3   172  LEU172      0.0022
     46  CD1       57.7310   38.4520   15.5760 C.3   172  LEU172      0.0001
     47  CD2       58.5830   37.2270   17.5780 C.3   172  LEU172      0.0001
     48  N         58.6940   35.4270   12.7780 N.am  173  GLY173     -0.1940
     49  CA        59.8920   34.8730   12.1680 C.3   173  GLY173      0.2014
     50  C         60.2960   35.7110   10.9690 C.2   173  GLY173      0.2638
     51  O         59.5530   35.7740    9.9820 O.2   173  GLY173     -0.2714
     52  N         61.4650   36.3580   11.0650 N.am  174  MET174     -0.1976
     53  CA        61.9570   37.1810    9.9710 C.3   174  MET174      0.1605
     54  C         62.0590   36.3580    8.6940 C.2   174  MET174      0.2287
     55  O         62.5310   35.2120    8.7230 O.2   174  MET174     -0.2864
     56  CB        63.3290   37.8030   10.2940 C.3   174  MET174      0.0413
     57  CG        63.3430   38.6040   11.5850 C.3   174  MET174      0.0598
     58  SD        62.0870   39.9070   11.6270 S.3   174  MET174     -0.1393
     59  CE        60.8190   39.1200   12.6570 C.3   174  MET174      0.0692
     60  N         57.8470   42.7460    5.3740 N.3   200  ALA200     -0.1245
     61  CA        58.0630   43.8630    6.2570 C.3   200  ALA200      0.1562
     62  C         58.8430   44.9570    5.5640 C.2   200  ALA200      0.2260
     63  O         60.0470   45.0910    5.7500 O.2   200  ALA200     -0.2867
     64  CB        58.6700   43.4720    7.6000 C.3   200  ALA200      0.0290
     65  N         51.1880   43.3220    9.9410 N.3   312  LEU312     -0.1245
     66  CA        52.1400   43.1600   10.9970 C.3   312  LEU312      0.1561
     67  C         52.3640   41.7000   11.3450 C.2   312  LEU312      0.2260
     68  O         53.4830   41.3010   11.6290 O.2   312  LEU312     -0.2867
     69  CB        51.6590   43.9010   12.2420 C.3   312  LEU312      0.0270
     70  CG        52.5170   43.6210   13.4810 C.3   312  LEU312      0.0019
     71  CD1       53.9670   44.0470   13.2370 C.3   312  LEU312      0.0001
     72  CD2       51.9490   44.4240   14.6480 C.3   312  LEU312      0.0001
     73  N         51.9910   38.4450   13.8280 N.3   314  GLU314     -0.1245
     74  CA        52.0230   38.2120   15.2680 C.3   314  GLU314      0.1567
     75  C         50.7080   37.7240   15.8230 C.2   314  GLU314      0.2260
     76  O         50.6230   37.3900   17.0000 O.2   314  GLU314     -0.2867
     77  CB        52.3820   39.4900   16.0600 C.3   314  GLU314      0.0388
     78  CG        53.7080   40.1410   15.6230 C.3   314  GLU314      0.1160
     79  CD        54.0650   41.3030   16.4990 C.2   314  GLU314      0.3649
     80  OE1       53.3430   41.7300   17.3820 O.co2 314  GLU314     -0.2457
     81  OE2       55.2420   41.7890   16.2290 O.co2 314  GLU314     -0.2457
@<TRIPOS>BOND
     1    60    61    1
     2    62    63    2
     3    62    61    1
     4    61    64    1
     5     1     2    1
     6    54    55    2
     7    54    53    1
     8     4     3    2
     9     2     3    1
    10     2     5    1
    11     6     5    1
    12    65    66    1
    13    53    56    1
    14    53    52    1
    15    51    50    2
    16    56    57    1
    17    50    52   am
    18    50    49    1
    19    66    67    1
    20    66    69    1
    21    38    37   ar
    22    67    68    2
    23    37    39   ar
    24    37    36    1
    25    36    35    1
    26    57    58    1
    27    58    59    1
    28    49    48    1
    29    69    70    1
    30    35    32    1
    31    48    42   am
    32    71    70    1
    33    70    72    1
    34    73    74    1
    35    42    43    2
    36    42    41    1
    37    32    33    1
    38    32    31    1
    39    33    40   am
    40    33    34    2
    41    40    41    1
    42    13    11    1
    43    41    44    1
    44    11    12    1
    45    11     8    1
    46     7     8    1
    47    74    75    1
    48    74    77    1
    49     8     9    1
    50    46    45    1
    51    78    77    1
    52    78    79    1
    53    75    76    2
    54    44    45    1
    55     9    10    2
    56    45    47    1
    57    81    79   ar
    58    79    80   ar
    59    27    26    1
    60    27    28    1
    61    30    28   am
    62    26    23    1
    63    28    29    2
    64    21    19    1
    65    23    22    1
    66    23    24    1
    67    22    16   am
    68    14    15    1
    69    18    19    1
    70    18    20    1
    71    18    15    1
    72    24    25    2
    73    15    16    1
    74    16    17    2
