@<TRIPOS>MOLECULE
tmp/1jhqA00.pdb
 167 157 0 0 0
SMALL
GASTEIGER

@<TRIPOS>ATOM
      1  N         65.8780   38.0080    1.2020 N.3    74  VAL74      -0.1231
      2  CA        64.4480   38.2300    0.9980 C.3    74  VAL74       0.1692
      3  C         63.7680   39.0470    2.1100 C.2    74  VAL74       0.2592
      4  O         62.5660   39.3460    2.0060 O.2    74  VAL74      -0.2718
      5  CB        63.6810   36.9290    0.7720 C.3    74  VAL74       0.0266
      6  CG1       64.1620   36.2430   -0.5110 C.3    74  VAL74       0.0020
      7  CG2       63.8760   36.0180    1.9850 C.3    74  VAL74       0.0020
      8  N         64.5230   39.4010    3.1630 N.am   75  ALA75      -0.1966
      9  CA        63.9810   40.1780    4.3130 C.3    75  ALA75       0.1728
     10  C         64.9350   41.2850    4.8310 C.2    75  ALA75       0.2616
     11  O         66.1080   41.0390    5.0650 O.2    75  ALA75      -0.2715
     12  CB        63.6140   39.2350    5.4480 C.3    75  ALA75       0.0334
     13  N         64.4150   42.4880    5.0800 N.am   76  VAL76      -0.1963
     14  CA        65.2230   43.6140    5.5510 C.3    76  VAL76       0.1727
     15  C         65.3530   43.7170    7.0540 C.2    76  VAL76       0.2616
     16  O         66.1630   44.4840    7.5510 O.2    76  VAL76      -0.2715
     17  CB        64.9170   44.9610    4.8720 C.3    76  VAL76       0.0290
     18  CG1       65.1380   44.8290    3.3770 C.3    76  VAL76       0.0023
     19  CG2       63.4840   45.4370    5.1120 C.3    76  VAL76       0.0023
     20  N         64.5600   42.9490    7.7820 N.am   77  SER77      -0.1950
     21  CA        64.6850   42.9560    9.2330 C.3    77  SER77       0.1924
     22  C         65.8730   42.0740    9.6190 C.2    77  SER77       0.2314
     23  O         66.0080   40.9590    9.1200 O.2    77  SER77      -0.2863
     24  CB        63.4590   42.3500    9.9300 C.3    77  SER77       0.2116
     25  OG        62.2830   43.0850    9.6370 O.3    77  SER77      -0.2180
     26  N         65.9690   39.9810   15.0950 N.3    81  VAL81      -0.1245
     27  CA        64.6940   40.5420   15.4830 C.3    81  VAL81       0.1561
     28  C         63.7160   39.4640   15.9860 C.2    81  VAL81       0.2260
     29  O         62.9130   39.7060   16.8740 O.2    81  VAL81      -0.2867
     30  CB        64.1040   41.4380   14.3780 C.3    81  VAL81       0.0252
     31  CG1       62.7640   42.0440   14.7890 C.3    81  VAL81       0.0019
     32  CG2       65.0850   42.5620   14.0430 C.3    81  VAL81       0.0019
     33  N         62.1280   40.2100   19.5140 N.3    85  GLN85      -0.1245
     34  CA        60.7080   40.4260   19.5280 C.3    85  GLN85       0.1566
     35  C         60.0020   39.3300   20.3350 C.2    85  GLN85       0.2260
     36  O         59.0200   39.5620   21.0780 O.2    85  GLN85      -0.2867
     37  CB        60.1900   40.6280   18.0780 C.3    85  GLN85       0.0367
     38  CG        58.7220   41.1000   18.0010 C.3    85  GLN85       0.0905
     39  CD        58.5140   42.5500   18.3940 C.2    85  GLN85       0.2608
     40  OE1       59.3210   43.1450   19.1350 O.2    85  GLN85      -0.2717
     41  NE2       57.4280   43.1390   17.9130 N.am   85  GLN85      -0.0878
     42  N         52.3090   34.3310   14.4320 N.3   171  GLU171     -0.1231
     43  CA        53.6880   33.9350   14.1980 C.3   171  GLU171      0.1699
     44  C         54.6580   35.0980   14.3690 C.2   171  GLU171      0.2592
     45  O         54.2630   36.2470   14.6070 O.2   171  GLU171     -0.2718
     46  CB        53.8730   33.3120   12.7960 C.3   171  GLU171      0.0402
     47  CG        53.2000   34.1250   11.6380 C.3   171  GLU171      0.1161
     48  CD        53.6180   35.5860   11.6250 C.2   171  GLU171      0.3649
     49  OE1       54.7480   35.9630   11.3950 O.co2 171  GLU171     -0.2457
     50  OE2       52.6360   36.4120   11.9660 O.co2 171  GLU171     -0.2457
     51  N         55.9400   34.7470   14.2350 N.am  172  LEU172     -0.1966
     52  CA        57.0860   35.6420   14.3280 C.3   172  LEU172      0.1728
     53  C         58.2660   34.9200   13.6880 C.2   172  LEU172      0.2617
     54  O         58.6430   33.8410   14.1160 O.2   172  LEU172     -0.2715
     55  CB        57.3880   36.0120   15.8060 C.3   172  LEU172      0.0311
     56  CG        58.2810   37.2230   16.0590 C.3   172  LEU172      0.0022
     57  CD1       57.6340   38.5120   15.5040 C.3   172  LEU172      0.0001
     58  CD2       58.5230   37.3420   17.5690 C.3   172  LEU172      0.0001
     59  N         58.8190   35.4840   12.6260 N.am  173  GLY173     -0.1940
     60  CA        59.9280   34.8350   11.9530 C.3   173  GLY173      0.2014
     61  C         60.3410   35.6720   10.7560 C.2   173  GLY173      0.2639
     62  O         59.6280   35.7140    9.7380 O.2   173  GLY173     -0.2714
     63  N         61.4820   36.3620   10.9080 N.am  174  MET174     -0.1963
     64  CA        61.9760   37.2100    9.8410 C.3   174  MET174      0.1736
     65  C         62.1360   36.3340    8.6100 C.2   174  MET174      0.2616
     66  O         62.6580   35.2250    8.7370 O.2   174  MET174     -0.2715
     67  CB        63.3120   37.9020   10.2200 C.3   174  MET174      0.0427
     68  CG        63.2440   38.6550   11.5480 C.3   174  MET174      0.0599
     69  SD        61.8140   39.7990   11.6380 S.3   174  MET174     -0.1393
     70  CE        60.9050   39.1500   13.0920 C.3   174  MET174      0.0692
     71  N         61.6580   36.8140    7.4610 N.am  175  ALA175     -0.1963
     72  CA        61.7020   36.1040    6.1730 C.3   175  ALA175      0.1728
     73  C         60.5350   35.1240    5.9360 C.2   175  ALA175      0.2616
     74  O         60.4130   34.5110    4.8560 O.2   175  ALA175     -0.2715
     75  CB        63.0440   35.4240    5.9040 C.3   175  ALA175      0.0334
     76  N         59.6450   34.9850    6.9290 N.am  176  ASN176     -0.1958
     77  CA        58.5240   34.0400    6.8050 C.3   176  ASN176      0.1819
     78  C         57.5160   34.2390    5.6560 C.2   176  ASN176      0.2622
     79  O         56.8120   33.3000    5.2690 O.2   176  ASN176     -0.2715
     80  CB        57.9080   33.6010    8.1630 C.3   176  ASN176      0.1195
     81  CG        57.0290   34.6430    8.8350 C.2   176  ASN176      0.2630
     82  OD1       56.7780   35.7270    8.2750 O.2   176  ASN176     -0.2716
     83  ND2       56.5540   34.3020   10.0400 N.am  176  ASN176     -0.0877
     84  N         57.4390   35.4570    5.1030 N.am  177  THR177     -0.1937
     85  CA        56.5160   35.7210    4.0030 C.3   177  THR177      0.2028
     86  C         56.9660   35.0300    2.7090 C.2   177  THR177      0.2642
     87  O         56.1880   34.8070    1.7640 O.2   177  THR177     -0.2714
     88  CB        56.1480   37.2160    3.8320 C.3   177  THR177      0.1808
     89  OG1       57.2790   37.9650    3.4120 O.3   177  THR177     -0.2208
     90  CG2       55.6390   37.8020    5.1440 C.3   177  THR177      0.0379
     91  N         58.2420   34.6240    2.6990 N.am  178  THR178     -0.1950
     92  CA        58.7550   33.9190    1.5520 C.3   178  THR178      0.1897
     93  C         58.1940   32.4760    1.4650 C.2   178  THR178      0.2313
     94  O         57.5150   32.1420    0.5110 O.2   178  THR178     -0.2863
     95  CB        60.2760   34.0290    1.5110 C.3   178  THR178      0.1794
     96  OG1       60.5720   35.3780    1.2490 O.3   178  THR178     -0.2208
     97  CG2       60.8300   33.1430    0.4040 C.3   178  THR178      0.0378
     98  N         55.5560   42.4690   -0.3230 N.3   198  ILE198     -0.1231
     99  CA        56.6850   43.1930    0.2580 C.3   198  ILE198      0.1692
    100  C         57.0020   42.7650    1.6990 C.2   198  ILE198      0.2593
    101  O         57.9880   43.2070    2.2990 O.2   198  ILE198     -0.2718
    102  CB        56.5410   44.7180    0.1050 C.3   198  ILE198      0.0266
    103  CG1       55.3420   45.2750    0.8850 C.3   198  ILE198      0.0019
    104  CG2       56.4510   45.0530   -1.3680 C.3   198  ILE198      0.0020
    105  CD1       55.2950   46.7890    0.8890 C.3   198  ILE198      0.0001
    106  N         56.1540   41.8960    2.2720 N.am  199  GLY199     -0.1942
    107  CA        56.3960   41.4690    3.6440 C.3   199  GLY199      0.2014
    108  C         56.5820   42.6700    4.5950 C.2   199  GLY199      0.2638
    109  O         55.8120   43.6490    4.6340 O.2   199  GLY199     -0.2714
    110  N         57.6190   42.5980    5.4020 N.am  200  ALA200     -0.1977
    111  CA        57.8900   43.6650    6.3550 C.3   200  ALA200      0.1597
    112  C         58.7220   44.7530    5.6960 C.2   200  ALA200      0.2287
    113  O         59.9090   44.9070    5.9650 O.2   200  ALA200     -0.2864
    114  CB        58.5420   43.1490    7.6480 C.3   200  ALA200      0.0319
    115  N         59.7760   45.2060    2.4150 N.3   202  LEU202     -0.1245
    116  CA        60.8690   44.9270    1.4940 C.3   202  LEU202      0.1561
    117  C         60.8480   46.0170    0.4250 C.2   202  LEU202      0.2260
    118  O         59.7800   46.3190   -0.0800 O.2   202  LEU202     -0.2867
    119  CB        60.6540   43.5470    0.8210 C.3   202  LEU202      0.0270
    120  CG        61.7790   43.0800   -0.1130 C.3   202  LEU202      0.0019
    121  CD1       63.0370   42.7480    0.6870 C.3   202  LEU202      0.0001
    122  CD2       61.3120   41.8350   -0.8780 C.3   202  LEU202      0.0001
    123  N         63.0690   38.1160   -4.5010 N.3   210  LYS210     -0.1245
    124  CA        62.1670   37.2990   -3.7000 C.3   210  LYS210      0.1561
    125  C         61.3590   36.3500   -4.5870 C.2   210  LYS210      0.2260
    126  O         61.1580   35.1750   -4.2640 O.2   210  LYS210     -0.2867
    127  CB        61.2850   38.1750   -2.8420 C.3   210  LYS210      0.0271
    128  CG        60.3980   37.4390   -1.8480 C.3   210  LYS210      0.0035
    129  CD        59.8330   38.4520   -0.8520 C.3   210  LYS210      0.0206
    130  CE        58.7550   37.9280    0.0930 C.3   210  LYS210      0.1093
    131  NZ        58.1880   39.0170    0.9310 N.3   210  LYS210     -0.1314
    132  N         50.4540   34.9780    6.5970 N.3   263  LEU263     -0.1245
    133  CA        51.1390   33.7750    7.0510 C.3   263  LEU263      0.1561
    134  C         50.0890   32.7420    7.4350 C.2   263  LEU263      0.2260
    135  O         50.1820   31.5480    7.1290 O.2   263  LEU263     -0.2867
    136  CB        52.0570   33.9960    8.2850 C.3   263  LEU263      0.0270
    137  CG        53.3320   34.8090    8.0280 C.3   263  LEU263      0.0019
    138  CD1       53.9250   34.4940    6.6570 C.3   263  LEU263      0.0001
    139  CD2       53.0510   36.3080    8.1580 C.3   263  LEU263      0.0001
    140  N         49.3760   44.5150    8.1390 N.3   311  ARG311     -0.1231
    141  CA        50.4380   43.6270    7.6630 C.3   311  ARG311      0.1694
    142  C         51.5430   43.4780    8.7080 C.2   311  ARG311      0.2591
    143  O         52.7280   43.5530    8.4150 O.2   311  ARG311     -0.2718
    144  CB        51.0170   44.1720    6.3610 C.3   311  ARG311      0.0321
    145  CG        51.3680   45.6540    6.4810 C.3   311  ARG311      0.0489
    146  CD        51.8750   46.1600    5.1400 C.3   311  ARG311      0.2205
    147  NE        52.2460   47.5710    5.1160 N.pl3 311  ARG311     -0.0865
    148  CZ        53.4040   48.0890    5.5420 C.cat 311  ARG311      0.5346
    149  NH1       54.3630   47.3400    6.0840 N.pl3 311  ARG311      0.1354
    150  NH2       53.5980   49.4010    5.4160 N.pl3 311  ARG311      0.1354
    151  N         51.1410   43.2820    9.9460 N.am  312  LEU312     -0.1980
    152  CA        52.0830   43.1080   11.0110 C.3   312  LEU312      0.1596
    153  C         52.3220   41.6330   11.3490 C.2   312  LEU312      0.2287
    154  O         53.4530   41.2400   11.6700 O.2   312  LEU312     -0.2864
    155  CB        51.6060   43.8630   12.2880 C.3   312  LEU312      0.0297
    156  CG        52.4400   43.6170   13.5760 C.3   312  LEU312      0.0022
    157  CD1       53.8840   44.0920   13.3840 C.3   312  LEU312      0.0001
    158  CD2       51.8210   44.3970   14.7550 C.3   312  LEU312      0.0001
    159  N         51.9290   38.3960   13.9200 N.3   314  GLU314     -0.1245
    160  CA        51.9600   38.1830   15.3770 C.3   314  GLU314      0.1567
    161  C         50.6430   37.6870   15.9420 C.2   314  GLU314      0.2260
    162  O         50.5490   37.3640   17.1240 O.2   314  GLU314     -0.2867
    163  CB        52.3020   39.4780   16.1490 C.3   314  GLU314      0.0388
    164  CG        53.5490   40.2200   15.6150 C.3   314  GLU314      0.1160
    165  CD        53.9600   41.3310   16.5530 C.2   314  GLU314      0.3649
    166  OE1       53.2870   41.6590   17.5120 O.co2 314  GLU314     -0.2457
    167  OE2       55.1120   41.8750   16.2530 O.co2 314  GLU314     -0.2457
@<TRIPOS>BOND
     1   125   126    2
     2   125   124    1
     3   123   124    1
     4   124   127    1
     5   127   128    1
     6   128   129    1
     7   104   102    1
     8   122   120    1
     9   129   130    1
    10     6     5    1
    11    98    99    1
    12   120   121    1
    13   120   119    1
    14   118   117    2
    15   130   131    1
    16   102    99    1
    17   102   103    1
    18    99   100    1
    19    97    95    1
    20   117   116    1
    21    94    93    2
    22     5     2    1
    23     5     7    1
    24   119   116    1
    25   103   105    1
    26     2     1    1
    27     2     3    1
    28    96    95    1
    29    93    92    1
    30   116   115    1
    31    95    92    1
    32    92    91    1
    33   100   106   am
    34   100   101    2
    35    87    86    2
    36     4     3    2
    37     3     8   am
    38   106   107    1
    39    91    86   am
    40    86    85    1
    41     8     9    1
    42    18    17    1
    43    89    88    1
    44   107   108    1
    45    88    85    1
    46    88    90    1
    47    85    84    1
    48     9    10    1
    49     9    12    1
    50   108   109    2
    51   108   110   am
    52    10    11    2
    53    10    13   am
    54    74    73    2
    55    17    19    1
    56    17    14    1
    57    13    14    1
    58    84    78   am
    59   147   146    1
    60   147   148    2
    61   146   145    1
    62    79    78    2
    63   110   111    1
    64   150   148    1
    65   148   149    1
    66    14    15    1
    67    78    77    1
    68   112   113    2
    69   112   111    1
    70    75    72    1
    71    73    72    1
    72    73    76   am
    73    72    71    1
    74   111   114    1
    75   144   145    1
    76   144   141    1
    77   132   133    1
    78   138   137    1
    79    77    76    1
    80    77    80    1
    81   133   134    1
    82   133   136    1
    83    15    16    2
    84    15    20   am
    85   135   134    2
    86    71    65   am
    87   141   140    1
    88   141   142    1
    89    20    21    1
    90   137   139    1
    91   137   136    1
    92    80    81    1
    93    82    81    2
    94   143   142    2
    95    65    66    2
    96    65    64    1
    97   142   151   am
    98    81    83   am
    99    23    22    2
   100    21    22    1
   101    21    24    1
   102    25    24    1
   103    62    61    2
   104    64    67    1
   105    64    63    1
   106   151   152    1
   107    67    68    1
   108    61    63   am
   109    61    60    1
   110   152   153    1
   111   152   155    1
   112   153   154    2
   113    49    48   ar
   114    68    69    1
   115    48    47    1
   116    48    50   ar
   117    47    46    1
   118    69    70    1
   119    60    59    1
   120   155   156    1
   121    59    53   am
   122    46    43    1
   123   157   156    1
   124   156   158    1
   125    53    54    2
   126    53    52    1
   127   159   160    1
   128    32    30    1
   129    43    44    1
   130    43    42    1
   131    51    52    1
   132    51    44   am
   133    52    55    1
   134    44    45    2
   135    30    31    1
   136    30    27    1
   137    26    27    1
   138   160   161    1
   139   160   163    1
   140    27    28    1
   141    57    56    1
   142   164   163    1
   143   164   165    1
   144    55    56    1
   145   161   162    2
   146    28    29    2
   147    56    58    1
   148   167   165   ar
   149   165   166   ar
   150    41    39   am
   151    38    37    1
   152    38    39    1
   153    37    34    1
   154    39    40    2
   155    33    34    1
   156    34    35    1
   157    35    36    2
