@<TRIPOS>MOLECULE
tmp/1ji0A00.pdb
 110 103 0 0 0
SMALL
GASTEIGER

@<TRIPOS>ATOM
      1  N          1.8300   -9.7600   68.9210 N.3    15  TYR15      -0.1241
      2  CA         2.2630  -11.1430   69.0950 C.3    15  TYR15       0.1605
      3  C          1.0870  -12.0740   69.4020 C.2    15  TYR15       0.2264
      4  O          0.2350  -11.8000   70.2370 O.2    15  TYR15      -0.2867
      5  CB         3.2800  -11.1880   70.2370 C.3    15  TYR15       0.0534
      6  CG         2.6090  -10.8980   71.5340 C.ar   15  TYR15      -0.0201
      7  CD1        1.9350  -11.9120   72.2100 C.ar   15  TYR15      -0.0009
      8  CD2        2.7210   -9.6370   72.1200 C.ar   15  TYR15      -0.0009
      9  CE1        1.3880  -11.6730   73.4620 C.ar   15  TYR15       0.0417
     10  CE2        2.1730   -9.3970   73.3710 C.ar   15  TYR15       0.0417
     11  CZ         1.5120  -10.4090   74.0430 C.ar   15  TYR15       0.1957
     12  OH         0.9890  -10.1870   75.3020 O.3    15  TYR15      -0.2866
     13  N         -2.8570  -10.6920   69.4720 N.3    18  ILE18      -0.1245
     14  CA        -3.0990   -9.4060   70.1060 C.3    18  ILE18       0.1561
     15  C         -2.1460   -8.3080   69.6620 C.2    18  ILE18       0.2260
     16  O         -0.9760   -8.5510   69.3740 O.2    18  ILE18      -0.2867
     17  CB        -3.0530   -9.5300   71.6560 C.3    18  ILE18       0.0252
     18  CG1       -1.6740   -9.9950   72.1200 C.3    18  ILE18       0.0019
     19  CG2       -4.0970  -10.5300   72.1290 C.3    18  ILE18       0.0019
     20  CD1       -0.6460   -8.8940   72.1960 C.3    18  ILE18       0.0001
     21  N         -0.6170   -5.7940   71.2610 N.3    20  ALA20      -0.1245
     22  CA        -0.2030   -5.3430   72.5840 C.3    20  ALA20       0.1562
     23  C          0.1100   -3.8540   72.7290 C.2    20  ALA20       0.2260
     24  O         -0.4770   -3.1780   73.5700 O.2    20  ALA20      -0.2867
     25  CB         0.9830   -6.1660   73.0460 C.3    20  ALA20       0.0290
     26  N         -2.7370   -4.2600   85.1810 N.3    40  ASN40      -0.1225
     27  CA        -2.2070   -5.5120   84.6670 C.3    40  ASN40       0.1785
     28  C         -2.7440   -5.7850   83.2640 C.2    40  ASN40       0.2598
     29  O         -3.9490   -5.7250   83.0250 O.2    40  ASN40      -0.2718
     30  CB        -2.5830   -6.6560   85.6030 C.3    40  ASN40       0.1169
     31  CG        -1.6250   -7.8130   85.5020 C.2    40  ASN40       0.2627
     32  OD1       -1.5900   -8.5250   84.4990 O.2    40  ASN40      -0.2716
     33  ND2       -0.8200   -7.9990   86.5420 N.am   40  ASN40      -0.0877
     34  N         -1.8430   -6.0760   82.3350 N.am   41  GLY41      -0.1942
     35  CA        -2.2570   -6.3400   80.9700 C.3    41  GLY41       0.2014
     36  C         -2.2370   -5.1060   80.0840 C.2    41  GLY41       0.2639
     37  O         -2.6910   -5.1430   78.9390 O.2    41  GLY41      -0.2714
     38  N         -1.7140   -4.0040   80.6100 N.am   42  ALA42      -0.1963
     39  CA        -1.6430   -2.7630   79.8490 C.3    42  ALA42       0.1728
     40  C         -0.5780   -2.8450   78.7530 C.2    42  ALA42       0.2617
     41  O         -0.6710   -2.1580   77.7370 O.2    42  ALA42      -0.2715
     42  CB        -1.3450   -1.5960   80.7870 C.3    42  ALA42       0.0334
     43  N          0.4290   -3.6890   78.9640 N.am   43  GLY43      -0.1940
     44  CA         1.4900   -3.8370   77.9850 C.3    43  GLY43       0.2014
     45  C          2.8400   -3.3720   78.5000 C.2    43  GLY43       0.2639
     46  O          3.7610   -3.1370   77.7240 O.2    43  GLY43      -0.2714
     47  N          2.9650   -3.2570   79.8180 N.am   44  LYS44      -0.1963
     48  CA         4.2040   -2.7970   80.4380 C.3    44  LYS44       0.1728
     49  C          5.4250   -3.6860   80.1900 C.2    44  LYS44       0.2617
     50  O          6.4800   -3.1950   79.7910 O.2    44  LYS44      -0.2715
     51  CB         3.9870   -2.6190   81.9490 C.3    44  LYS44       0.0311
     52  CG         2.9130   -1.6030   82.3080 C.3    44  LYS44       0.0038
     53  CD         2.7890   -1.4230   83.8190 C.3    44  LYS44       0.0206
     54  CE         2.4340   -2.7270   84.5230 C.3    44  LYS44       0.1093
     55  NZ         1.1200   -3.2740   84.0750 N.3    44  LYS44      -0.1314
     56  N          5.2930   -4.9830   80.4550 N.am   45  THR45      -0.1937
     57  CA         6.3870   -5.9350   80.2570 C.3    45  THR45       0.2028
     58  C          6.7160   -6.0570   78.7730 C.2    45  THR45       0.2642
     59  O          7.8760   -6.2070   78.4000 O.2    45  THR45      -0.2714
     60  CB         6.0210   -7.3390   80.7880 C.3    45  THR45       0.1808
     61  OG1        5.9330   -7.2970   82.2130 O.3    45  THR45      -0.2208
     62  CG2        7.0850   -8.3680   80.3980 C.3    45  THR45       0.0379
     63  N          5.6880   -5.9970   77.9360 N.am   46  THR46      -0.1950
     64  CA         5.8840   -6.0910   76.5000 C.3    46  THR46       0.1897
     65  C          6.7540   -4.9180   76.0490 C.2    46  THR46       0.2313
     66  O          7.6640   -5.0920   75.2430 O.2    46  THR46      -0.2863
     67  CB         4.5350   -6.0710   75.7540 C.3    46  THR46       0.1794
     68  OG1        3.7590   -7.2070   76.1530 O.3    46  THR46      -0.2208
     69  CG2        4.7480   -6.1330   74.2380 C.3    46  THR46       0.0378
     70  N         10.5430   -9.5270   85.8170 N.3    86  GLU86      -0.1245
     71  CA         9.6610   -9.9480   86.8970 C.3    86  GLU86       0.1567
     72  C         10.0700  -11.3640   87.2770 C.2    86  GLU86       0.2260
     73  O         10.5820  -12.1120   86.4430 O.2    86  GLU86      -0.2867
     74  CB         8.2000   -9.9620   86.4380 C.3    86  GLU86       0.0388
     75  CG         7.5260   -8.6040   86.4050 C.3    86  GLU86       0.1160
     76  CD         6.0650   -8.6880   85.9840 C.2    86  GLU86       0.3649
     77  OE1        5.7950   -8.9750   84.7970 O.co2  86  GLU86      -0.2457
     78  OE2        5.1840   -8.4720   86.8480 O.co2  86  GLU86      -0.2457
     79  N         11.2250   -4.3870   85.9670 N.3   156  ASP156     -0.1225
     80  CA         9.8250   -4.7440   85.7820 C.3   156  ASP156      0.1805
     81  C          9.2260   -5.1630   87.1160 C.2   156  ASP156      0.2597
     82  O          9.5600   -6.2220   87.6600 O.2   156  ASP156     -0.2718
     83  CB         9.6900   -5.8850   84.7580 C.3   156  ASP156      0.1424
     84  CG         8.2610   -6.0720   84.2680 C.2   156  ASP156      0.3668
     85  OD1        7.3460   -5.3790   84.7600 O.co2 156  ASP156     -0.2456
     86  OD2        8.0400   -6.9170   83.3810 O.co2 156  ASP156     -0.2456
     87  N          8.3470   -4.3070   87.6340 N.am  157  GLU157     -0.1979
     88  CA         7.6590   -4.5150   88.9010 C.3   157  GLU157      0.1602
     89  C          8.5730   -5.0040   90.0120 C.2   157  GLU157      0.2287
     90  O          8.3760   -6.0840   90.5570 O.2   157  GLU157     -0.2864
     91  CB         6.5020   -5.4880   88.7070 C.3   157  GLU157      0.0415
     92  CG         5.6520   -5.1250   87.5130 C.3   157  GLU157      0.1163
     93  CD         4.1880   -5.2760   87.7860 C.2   157  GLU157      0.3649
     94  OE1        3.7510   -4.8490   88.8750 O.co2 157  GLU157     -0.2457
     95  OE2        3.4690   -5.8130   86.9170 O.co2 157  GLU157     -0.2457
     96  N          6.6910   -6.0250   93.2630 N.3   160  LEU160     -0.1245
     97  CA         5.5910   -6.9850   93.1870 C.3   160  LEU160      0.1561
     98  C          5.6280   -8.0370   94.2880 C.2   160  LEU160      0.2260
     99  O          6.6520   -8.6850   94.4950 O.2   160  LEU160     -0.2867
    100  CB         5.5900   -7.6920   91.8250 C.3   160  LEU160      0.0270
    101  CG         4.4360   -8.6670   91.5580 C.3   160  LEU160      0.0019
    102  CD1        3.0990   -7.9510   91.7120 C.3   160  LEU160      0.0001
    103  CD2        4.5680   -9.2440   90.1540 C.3   160  LEU160      0.0001
    104  N         -4.2460   -0.3100   77.8910 N.3   206  THR206     -0.1218
    105  CA        -4.5140   -1.1220   76.7070 C.3   206  THR206      0.1862
    106  C         -3.6130   -0.7420   75.5310 C.2   206  THR206      0.2287
    107  O         -4.0920   -0.3640   74.4630 O.2   206  THR206     -0.2866
    108  CB        -6.0020   -1.0250   76.2740 C.3   206  THR206      0.1770
    109  OG1       -6.8480   -1.3880   77.3750 O.3   206  THR206     -0.2211
    110  CG2       -6.2900   -1.9850   75.1250 C.3   206  THR206      0.0375
@<TRIPOS>BOND
     1     1     2    1
     2     2     3    1
     3     2     5    1
     4    16    15    2
     5     3     4    2
     6    13    14    1
     7    15    14    1
     8    14    17    1
     9     5     6    1
    10    21    22    1
    11     6     8   ar
    12     6     7   ar
    13    17    18    1
    14    17    19    1
    15    18    20    1
    16     8    10   ar
    17     7     9   ar
    18    22    23    1
    19    22    25    1
    20    23    24    2
    21    10    11   ar
    22     9    11   ar
    23    11    12    1
    24    69    67    1
    25   107   106    2
    26   110   108    1
    27    66    65    2
    28   106   105    1
    29    67    68    1
    30    67    64    1
    31    65    64    1
    32   108   105    1
    33   108   109    1
    34    64    63    1
    35   105   104    1
    36    46    45    2
    37    41    40    2
    38    63    58   am
    39    44    45    1
    40    44    43    1
    41    59    58    2
    42    45    47   am
    43    40    43   am
    44    40    39    1
    45    58    57    1
    46    37    36    2
    47    50    49    2
    48    47    48    1
    49    39    38    1
    50    39    42    1
    51    36    38   am
    52    36    35    1
    53    49    48    1
    54    49    56   am
    55    57    56    1
    56    57    60    1
    57    62    60    1
    58    48    51    1
    59    60    61    1
    60    35    34    1
    61    51    52    1
    62    52    53    1
    63    34    28   am
    64    29    28    2
    65    28    27    1
    66    86    84   ar
    67    53    54    1
    68    55    54    1
    69    84    83    1
    70    84    85   ar
    71    32    31    2
    72    27    26    1
    73    27    30    1
    74    83    80    1
    75    77    76   ar
    76    31    30    1
    77    31    33   am
    78    80    79    1
    79    80    81    1
    80    70    71    1
    81    76    75    1
    82    76    78   ar
    83    75    74    1
    84    74    71    1
    85    73    72    2
    86    71    72    1
    87    95    93   ar
    88    81    87   am
    89    81    82    2
    90    92    93    1
    91    92    91    1
    92    87    88    1
    93    93    94   ar
    94    91    88    1
    95    88    89    1
    96    89    90    2
    97   103   101    1
    98   101   102    1
    99   101   100    1
   100   100    97    1
   101    97    96    1
   102    97    98    1
   103    98    99    2
