@<TRIPOS>MOLECULE
tmp/1ji4A00.pdb
 97 91 0 0 0
SMALL
GASTEIGER

@<TRIPOS>ATOM
      1  N         22.7990   18.4620    9.5840 N.3    42  GLU42      -0.1231
      2  CA        22.8360   17.1520    8.9530 C.3    42  GLU42       0.1699
      3  C         23.5750   17.2450    7.6190 C.2    42  GLU42       0.2592
      4  O         24.3300   16.3410    7.2490 O.2    42  GLU42      -0.2718
      5  CB        21.4110   16.6330    8.7470 C.3    42  GLU42       0.0402
      6  CG        20.6790   16.3880   10.0600 C.3    42  GLU42       0.1161
      7  CD        19.1680   16.2420    9.8980 C.2    42  GLU42       0.3649
      8  OE1       18.4750   16.0450   10.9270 O.co2  42  GLU42      -0.2457
      9  OE2       18.6730   16.3300    8.7490 O.co2  42  GLU42      -0.2457
     10  N         23.3610   18.3510    6.9110 N.am   43  ILE43      -0.1980
     11  CA        24.0000   18.5720    5.6240 C.3    43  ILE43       0.1595
     12  C         25.5190   18.7060    5.7390 C.2    43  ILE43       0.2287
     13  O         26.2460   18.0530    4.9890 O.2    43  ILE43      -0.2864
     14  CB        23.4250   19.8230    4.9270 C.3    43  ILE43       0.0276
     15  CG1       21.9370   19.6060    4.6350 C.3    43  ILE43       0.0022
     16  CG2       24.1850   20.1050    3.6390 C.3    43  ILE43       0.0022
     17  CD1       21.2650   20.7730    3.9520 C.3    43  ILE43       0.0001
     18  N         27.2580   15.5010    6.4140 N.3    46  GLU46      -0.1231
     19  CA        27.3420   14.7200    5.1950 C.3    46  GLU46       0.1699
     20  C         28.5420   15.1600    4.3500 C.2    46  GLU46       0.2592
     21  O         29.2650   14.3220    3.8130 O.2    46  GLU46      -0.2718
     22  CB        26.0550   14.8880    4.4000 C.3    46  GLU46       0.0402
     23  CG        25.6190   13.6420    3.6560 C.3    46  GLU46       0.1161
     24  CD        25.0890   12.5660    4.5840 C.2    46  GLU46       0.3649
     25  OE1       24.2360   12.8930    5.4420 O.co2  46  GLU46      -0.2457
     26  OE2       25.5170   11.3970    4.4470 O.co2  46  GLU46      -0.2457
     27  N         28.7510   16.4710    4.2300 N.am   47  PHE47      -0.1976
     28  CA        29.8800   16.9760    3.4580 C.3    47  PHE47       0.1639
     29  C         31.1970   16.5820    4.0980 C.2    47  PHE47       0.2290
     30  O         32.1830   16.3470    3.4030 O.2    47  PHE47      -0.2864
     31  CB        29.7940   18.4960    3.2930 C.3    47  PHE47       0.0560
     32  CG        28.8410   18.9200    2.2160 C.ar   47  PHE47      -0.0200
     33  CD1       28.9950   18.4440    0.9130 C.ar   47  PHE47      -0.0042
     34  CD2       27.7620   19.7460    2.5030 C.ar   47  PHE47      -0.0042
     35  CE1       28.0820   18.7810   -0.0860 C.ar   47  PHE47      -0.0003
     36  CE2       26.8400   20.0920    1.5090 C.ar   47  PHE47      -0.0003
     37  CZ        27.0000   19.6060    0.2140 C.ar   47  PHE47      -0.0000
     38  N         31.7120   13.0770    2.9390 N.3    50  MET50      -0.1245
     39  CA        32.0230   13.0770    1.5150 C.3    50  MET50       0.1570
     40  C         33.4670   13.5190    1.3110 C.2    50  MET50       0.2261
     41  O         34.2020   12.9480    0.5070 O.2    50  MET50      -0.2867
     42  CB        31.0880   14.0330    0.7930 C.3    50  MET50       0.0387
     43  CG        31.2260   14.0210   -0.7060 C.3    50  MET50       0.0595
     44  SD        30.0470   15.1540   -1.4400 S.3    50  MET50      -0.1393
     45  CE        31.1280   16.4890   -1.9240 C.3    50  MET50       0.0692
     46  N         23.8470   22.0510   -5.0770 N.3    99  TYR99      -0.1241
     47  CA        23.5140   20.6350   -5.2250 C.3    99  TYR99       0.1605
     48  C         23.4160   20.2700   -6.7000 C.2    99  TYR99       0.2264
     49  O         23.8880   19.2150   -7.1150 O.2    99  TYR99      -0.2867
     50  CB        22.1870   20.3230   -4.5320 C.3    99  TYR99       0.0534
     51  CG        22.3130   19.9560   -3.0730 C.ar   99  TYR99      -0.0201
     52  CD1       23.3780   20.4150   -2.3010 C.ar   99  TYR99      -0.0009
     53  CD2       21.3480   19.1700   -2.4550 C.ar   99  TYR99      -0.0009
     54  CE1       23.4780   20.1000   -0.9500 C.ar   99  TYR99       0.0417
     55  CE2       21.4360   18.8490   -1.1040 C.ar   99  TYR99       0.0417
     56  CZ        22.5030   19.3160   -0.3570 C.ar   99  TYR99       0.1957
     57  OH        22.5920   18.9810    0.9780 O.3    99  TYR99      -0.2866
     58  N         26.8560   19.9320   -8.0100 N.3   102  LEU102     -0.1245
     59  CA        27.4790   18.6820   -7.5800 C.3   102  LEU102      0.1561
     60  C         26.9470   17.5050   -8.3830 C.2   102  LEU102      0.2260
     61  O         27.6870   16.5700   -8.6830 O.2   102  LEU102     -0.2867
     62  CB        27.2120   18.4160   -6.0970 C.3   102  LEU102      0.0270
     63  CG        27.9540   19.2210   -5.0360 C.3   102  LEU102      0.0019
     64  CD1       27.4720   18.7730   -3.6760 C.3   102  LEU102      0.0001
     65  CD2       29.4580   19.0180   -5.1610 C.3   102  LEU102      0.0001
     66  N         26.0920    8.7440   -4.6340 N.3   128  GLN128     -0.1245
     67  CA        26.0030   10.1550   -4.2740 C.3   128  GLN128      0.1566
     68  C         24.9440   10.8260   -5.1410 C.2   128  GLN128      0.2260
     69  O         24.2260   11.7140   -4.6880 O.2   128  GLN128     -0.2867
     70  CB        27.3570   10.8460   -4.4640 C.3   128  GLN128      0.0367
     71  CG        28.4800   10.2320   -3.6540 C.3   128  GLN128      0.0905
     72  CD        28.1030   10.0400   -2.1940 C.2   128  GLN128      0.2608
     73  OE1       27.7210   10.9910   -1.5080 O.2   128  GLN128     -0.2717
     74  NE2       28.2050    8.8020   -1.7140 N.am  128  GLN128     -0.0878
     75  N         21.5090   10.2900   -3.6230 N.3   131  LYS131     -0.1231
     76  CA        21.2450   11.1610   -2.4800 C.3   131  LYS131      0.1693
     77  C         20.9880   12.5910   -2.9260 C.2   131  LYS131      0.2591
     78  O         20.0950   13.2630   -2.4010 O.2   131  LYS131     -0.2718
     79  CB        22.4280   11.1700   -1.5140 C.3   131  LYS131      0.0285
     80  CG        22.7890    9.8430   -0.8960 C.3   131  LYS131      0.0035
     81  CD        23.8760   10.0850    0.1240 C.3   131  LYS131      0.0206
     82  CE        24.5070    8.8050    0.6070 C.3   131  LYS131      0.1093
     83  NZ        25.5860    9.1190    1.5960 N.3   131  LYS131     -0.1314
     84  N         21.7890   13.0540   -3.8810 N.am  132  LEU132     -0.1980
     85  CA        21.6640   14.4080   -4.4010 C.3   132  LEU132      0.1596
     86  C         20.3280   14.6180   -5.0920 C.2   132  LEU132      0.2287
     87  O         19.6760   15.6430   -4.8990 O.2   132  LEU132     -0.2864
     88  CB        22.8000   14.7130   -5.3830 C.3   132  LEU132      0.0297
     89  CG        24.1540   15.0890   -4.7770 C.3   132  LEU132      0.0022
     90  CD1       25.2480   14.9730   -5.8260 C.3   132  LEU132      0.0001
     91  CD2       24.0810   16.5010   -4.2230 C.3   132  LEU132      0.0001
     92  N         17.4500   14.9290   -2.5440 N.3   135  SER135     -0.1217
     93  CA        17.4880   16.2200   -1.8640 C.3   135  SER135      0.1889
     94  C         17.0950   17.3610   -2.7880 C.2   135  SER135      0.2288
     95  O         16.4420   18.3110   -2.3620 O.2   135  SER135     -0.2866
     96  CB        18.8820   16.4910   -1.2980 C.3   135  SER135      0.2089
     97  OG        19.2110   15.5480   -0.2960 O.3   135  SER135     -0.2183
@<TRIPOS>BOND
     1    61    60    2
     2    60    59    1
     3    58    59    1
     4    59    62    1
     5    49    48    2
     6    48    47    1
     7    62    63    1
     8    90    89    1
     9    88    89    1
    10    88    85    1
    11    47    46    1
    12    47    50    1
    13    65    63    1
    14    68    69    2
    15    68    67    1
    16    86    87    2
    17    86    85    1
    18    63    64    1
    19    89    91    1
    20    66    67    1
    21    50    51    1
    22    70    67    1
    23    70    71    1
    24    85    84    1
    25    84    77   am
    26    71    72    1
    27    75    76    1
    28    51    53   ar
    29    51    52   ar
    30    77    76    1
    31    77    78    2
    32    94    95    2
    33    94    93    1
    34    92    93    1
    35    76    79    1
    36    53    55   ar
    37    52    54   ar
    38    72    74   am
    39    72    73    2
    40    45    44    1
    41    93    96    1
    42    79    80    1
    43    44    43    1
    44    96    97    1
    45    55    56   ar
    46    54    56   ar
    47    80    81    1
    48    43    42    1
    49    56    57    1
    50    35    37   ar
    51    35    33   ar
    52    81    82    1
    53    37    36   ar
    54    41    40    2
    55    82    83    1
    56    42    39    1
    57    33    32   ar
    58    40    39    1
    59    36    34   ar
    60    39    38    1
    61    32    34   ar
    62    32    31    1
    63    31    28    1
    64    30    29    2
    65    28    29    1
    66    28    27    1
    67    16    14    1
    68    23    22    1
    69    23    24    1
    70    21    20    2
    71    17    15    1
    72    27    20   am
    73    20    19    1
    74    22    19    1
    75    26    24   ar
    76    24    25   ar
    77    15    14    1
    78    14    11    1
    79    13    12    2
    80    19    18    1
    81    11    12    1
    82    11    10    1
    83    10     3   am
    84     4     3    2
    85     3     2    1
    86     5     2    1
    87     5     6    1
    88     9     7   ar
    89     2     1    1
    90     7     6    1
    91     7     8   ar
