@<TRIPOS>MOLECULE
tmp/1jibA00.pdb
 176 170 0 0 0
SMALL
GASTEIGER

@<TRIPOS>ATOM
      1  N         31.9250   59.1350   70.7250 N.3   202  HIS202     -0.1241
      2  CA        31.0560   58.1770   70.0430 C.3   202  HIS202      0.1621
      3  C         30.8630   56.9090   70.8610 C.2   202  HIS202      0.2264
      4  O         29.9170   56.1470   70.6430 O.2   202  HIS202     -0.2867
      5  CB        31.6720   57.8410   68.7000 C.3   202  HIS202      0.0745
      6  CG        33.1550   57.7190   68.7620 C.ar  202  HIS202      0.0817
      7  ND1       33.7850   56.5900   69.2320 N.ar  202  HIS202     -0.2268
      8  CD2       34.1310   58.6170   68.4950 C.ar  202  HIS202      0.1154
      9  CE1       35.0880   56.7980   69.2520 C.ar  202  HIS202      0.1986
     10  NE2       35.3250   58.0200   68.8100 N.ar  202  HIS202     -0.2212
     11  N         32.6140   54.2750   70.7820 N.3   204  TYR204     -0.1241
     12  CA        32.8780   53.0560   70.0330 C.3   204  TYR204      0.1605
     13  C         34.0220   52.2220   70.6120 C.2   204  TYR204      0.2264
     14  O         34.2300   51.0700   70.2120 O.2   204  TYR204     -0.2867
     15  CB        33.1600   53.4000   68.5810 C.3   204  TYR204      0.0534
     16  CG        31.9150   53.3910   67.7350 C.ar  204  TYR204     -0.0201
     17  CD1       31.2440   52.2020   67.4720 C.ar  204  TYR204     -0.0009
     18  CD2       31.3960   54.5670   67.2130 C.ar  204  TYR204     -0.0009
     19  CE1       30.0880   52.1840   66.7140 C.ar  204  TYR204      0.0417
     20  CE2       30.2370   54.5570   66.4520 C.ar  204  TYR204      0.0417
     21  CZ        29.5900   53.3620   66.2110 C.ar  204  TYR204      0.1957
     22  OH        28.4280   53.3570   65.4840 O.3   204  TYR204     -0.2866
     23  N         35.9180   45.2360   68.0800 N.3   244  HIS244     -0.1241
     24  CA        36.9920   45.7500   68.9180 C.3   244  HIS244      0.1621
     25  C         36.5000   46.3620   70.2130 C.2   244  HIS244      0.2264
     26  O         35.3510   46.8010   70.3370 O.2   244  HIS244     -0.2867
     27  CB        37.8370   46.7660   68.1560 C.3   244  HIS244      0.0745
     28  CG        37.0320   47.7220   67.3450 C.ar  244  HIS244      0.0817
     29  ND1       36.4370   48.8400   67.8860 N.ar  244  HIS244     -0.2268
     30  CD2       36.6880   47.7050   66.0370 C.ar  244  HIS244      0.1154
     31  CE1       35.7590   49.4720   66.9460 C.ar  244  HIS244      0.1986
     32  NE2       35.8950   48.8030   65.8140 N.ar  244  HIS244     -0.2212
     33  N         41.2590   48.5630   65.0860 N.3   286  PHE286     -0.1227
     34  CA        40.1900   48.8130   64.1420 C.3   286  PHE286      0.1736
     35  C         40.6160   49.1630   62.7090 C.2   286  PHE286      0.2595
     36  O         40.5010   48.3350   61.7990 O.2   286  PHE286     -0.2718
     37  CB        39.2570   49.9010   64.6840 C.3   286  PHE286      0.0547
     38  CG        38.3260   50.4350   63.6590 C.ar  286  PHE286     -0.0202
     39  CD1       38.4500   51.7430   63.2100 C.ar  286  PHE286     -0.0042
     40  CD2       37.3970   49.5940   63.0520 C.ar  286  PHE286     -0.0042
     41  CE1       37.6700   52.2100   62.1600 C.ar  286  PHE286     -0.0003
     42  CE2       36.6110   50.0450   62.0030 C.ar  286  PHE286     -0.0003
     43  CZ        36.7480   51.3600   61.5500 C.ar  286  PHE286     -0.0000
     44  N         41.0740   50.3930   62.4990 N.am  287  ALA287     -0.1980
     45  CA        41.4410   50.8160   61.1610 C.3   287  ALA287      0.1597
     46  C         42.8670   50.4980   60.7720 C.2   287  ALA287      0.2287
     47  O         43.1420   49.4190   60.2610 O.2   287  ALA287     -0.2864
     48  CB        41.1880   52.3070   61.0140 C.3   287  ALA287      0.0319
     49  N         44.8950   52.7160   65.4540 N.3   290  VAL290     -0.1245
     50  CA        43.8900   53.3220   66.3360 C.3   290  VAL290      0.1561
     51  C         43.9150   52.6010   67.6950 C.2   290  VAL290      0.2260
     52  O         43.1880   51.6420   67.9460 O.2   290  VAL290     -0.2867
     53  CB        42.4730   53.3230   65.6660 C.3   290  VAL290      0.0252
     54  CG1       42.2590   52.0590   64.8850 C.3   290  VAL290      0.0019
     55  CG2       41.3970   53.4970   66.7160 C.3   290  VAL290      0.0019
     56  N         41.1540   51.1030   70.3020 N.3   293  MET293     -0.1245
     57  CA        40.2940   50.0180   69.8610 C.3   293  MET293      0.1570
     58  C         41.0400   48.7520   69.4960 C.2   293  MET293      0.2261
     59  O         41.0700   48.3630   68.3340 O.2   293  MET293     -0.2867
     60  CB        39.4860   50.4660   68.6440 C.3   293  MET293      0.0387
     61  CG        39.1610   51.9410   68.6340 C.3   293  MET293      0.0595
     62  SD        37.8620   52.3860   67.4690 S.3   293  MET293     -0.1393
     63  CE        36.6280   53.0870   68.5760 C.3   293  MET293      0.0692
     64  N         22.6080   46.5500   65.8050 N.3   323  ARG323     -0.1245
     65  CA        23.2200   47.0920   64.6030 C.3   323  ARG323      0.1563
     66  C         24.6030   46.6050   64.9620 C.2   323  ARG323      0.2260
     67  O         25.0840   46.9520   66.0410 O.2   323  ARG323     -0.2867
     68  CB        23.2060   48.5990   64.6520 C.3   323  ARG323      0.0307
     69  CG        23.4960   49.2910   63.3480 C.3   323  ARG323      0.0489
     70  CD        24.9620   49.2630   62.9510 C.3   323  ARG323      0.2205
     71  NE        25.8610   50.0160   63.8240 N.pl3 323  ARG323     -0.0865
     72  CZ        26.9180   50.6970   63.3860 C.cat 323  ARG323      0.5346
     73  NH1       27.6910   51.3390   64.2390 N.pl3 323  ARG323      0.1354
     74  NH2       27.1900   50.7670   62.0900 N.pl3 323  ARG323      0.1354
     75  N         28.4690   46.8140   64.6390 N.3   325  ASN325     -0.1225
     76  CA        29.6100   47.5950   64.1790 C.3   325  ASN325      0.1785
     77  C         30.7000   46.6950   63.5950 C.2   325  ASN325      0.2597
     78  O         31.0460   45.6600   64.1710 O.2   325  ASN325     -0.2718
     79  CB        30.1560   48.4200   65.3410 C.3   325  ASN325      0.1169
     80  CG        31.5500   48.9380   65.0830 C.2   325  ASN325      0.2627
     81  OD1       31.7570   49.8120   64.2410 O.2   325  ASN325     -0.2716
     82  ND2       32.5240   48.3900   65.8050 N.am  325  ASN325     -0.0877
     83  N         31.2370   47.1270   62.4550 N.am  326  VAL326     -0.1980
     84  CA        32.2640   46.4050   61.6910 C.3   326  VAL326      0.1595
     85  C         32.0250   44.9040   61.7560 C.2   326  VAL326      0.2287
     86  O         32.9520   44.1250   61.9360 O.2   326  VAL326     -0.2864
     87  CB        33.6730   46.6880   62.2280 C.3   326  VAL326      0.0276
     88  CG1       34.6960   46.2430   61.2210 C.3   326  VAL326      0.0022
     89  CG2       33.8330   48.1600   62.5280 C.3   326  VAL326      0.0022
     90  N         31.4510   42.7330   59.5060 N.3   328  ASN328     -0.1225
     91  CA        32.1550   41.9440   58.4920 C.3   328  ASN328      0.1785
     92  C         33.5790   41.6270   58.8570 C.2   328  ASN328      0.2597
     93  O         34.2510   40.9110   58.1220 O.2   328  ASN328     -0.2718
     94  CB        32.1450   42.6130   57.1080 C.3   328  ASN328      0.1169
     95  CG        32.8050   43.9650   57.1050 C.2   328  ASN328      0.2627
     96  OD1       33.8070   44.1770   57.7810 O.2   328  ASN328     -0.2716
     97  ND2       32.2540   44.8920   56.3290 N.am  328  ASN328     -0.0877
     98  N         34.0480   42.1320   59.9900 N.am  329  GLU329     -0.1979
     99  CA        35.4070   41.8340   60.3620 C.3   329  GLU329      0.1602
    100  C         35.4530   40.8350   61.4780 C.2   329  GLU329      0.2287
    101  O         36.5100   40.5610   62.0250 O.2   329  GLU329     -0.2864
    102  CB        36.1520   43.0900   60.7590 C.3   329  GLU329      0.0415
    103  CG        36.6460   43.8840   59.5940 C.3   329  GLU329      0.1163
    104  CD        37.5760   44.9630   60.0360 C.2   329  GLU329      0.3649
    105  OE1       38.5150   44.6530   60.8120 O.co2 329  GLU329     -0.2457
    106  OE2       37.3670   46.1160   59.6140 O.co2 329  GLU329     -0.2457
    107  N         26.5210   45.7490   59.8270 N.3   354  GLU354     -0.1245
    108  CA        27.0430   46.9610   59.2120 C.3   354  GLU354      0.1567
    109  C         28.1280   46.6770   58.1770 C.2   354  GLU354      0.2260
    110  O         29.3140   46.7570   58.4820 O.2   354  GLU354     -0.2867
    111  CB        27.6000   47.8750   60.2910 C.3   354  GLU354      0.0388
    112  CG        28.1940   49.1330   59.7580 C.3   354  GLU354      0.1160
    113  CD        29.3790   49.6110   60.5770 C.2   354  GLU354      0.3649
    114  OE1       30.0950   50.5000   60.0830 O.co2 354  GLU354     -0.2457
    115  OE2       29.5990   49.1120   61.7030 O.co2 354  GLU354     -0.2457
    116  N         29.3770   47.9850   54.5160 N.3   356  TRP356     -0.1227
    117  CA        29.1700   49.0360   53.5280 C.3   356  TRP356      0.1737
    118  C         29.3850   48.5050   52.1060 C.2   356  TRP356      0.2595
    119  O         29.7970   49.2460   51.2150 O.2   356  TRP356     -0.2718
    120  CB        30.1510   50.1930   53.7950 C.3   356  TRP356      0.0564
    121  CG        29.7230   51.2550   54.7900 C.ar  356  TRP356      0.0003
    122  CD1       30.5060   51.8340   55.7550 C.ar  356  TRP356      0.0946
    123  CD2       28.4620   51.9490   54.8310 C.ar  356  TRP356      0.0152
    124  NE1       29.8230   52.8440   56.3850 N.ar  356  TRP356     -0.2442
    125  CE2       28.5650   52.9390   55.8420 C.ar  356  TRP356      0.0810
    126  CE3       27.2550   51.8330   54.1110 C.ar  356  TRP356      0.0012
    127  CZ2       27.4990   53.8110   56.1500 C.ar  356  TRP356      0.0191
    128  CZ3       26.2100   52.6920   54.4180 C.ar  356  TRP356      0.0001
    129  CH2       26.3400   53.6700   55.4300 C.ar  356  TRP356      0.0015
    130  N         29.0560   47.2400   51.8750 N.am  357  HIS357     -0.1975
    131  CA        29.2760   46.6500   50.5600 C.3   357  HIS357      0.1656
    132  C         28.5580   45.3330   50.4570 C.2   357  HIS357      0.2291
    133  O         28.0470   44.8300   51.4460 O.2   357  HIS357     -0.2864
    134  CB        30.7620   46.4070   50.3410 C.3   357  HIS357      0.0771
    135  CG        31.3240   45.3200   51.2060 C.ar  357  HIS357      0.0820
    136  ND1       31.2820   43.9890   50.8500 N.ar  357  HIS357     -0.2267
    137  CD2       31.9340   45.3680   52.4150 C.ar  357  HIS357      0.1154
    138  CE1       31.8470   43.2650   51.8010 C.ar  357  HIS357      0.1986
    139  NE2       32.2510   44.0770   52.7610 N.ar  357  HIS357     -0.2212
    140  N         26.3130   58.5460   60.7090 N.3   420  HIS420     -0.1226
    141  CA        27.2840   59.3870   61.4060 C.3   420  HIS420      0.1752
    142  C         28.6760   59.3620   60.7870 C.2   420  HIS420      0.2596
    143  O         29.5940   59.9870   61.3150 O.2   420  HIS420     -0.2718
    144  CB        27.3930   58.9840   62.8630 C.3   420  HIS420      0.0759
    145  CG        27.7130   57.5430   63.0490 C.ar  420  HIS420      0.0818
    146  ND1       26.8350   56.5420   62.7030 N.ar  420  HIS420     -0.2268
    147  CD2       28.8060   56.9310   63.5540 C.ar  420  HIS420      0.1154
    148  CE1       27.3720   55.3730   62.9940 C.ar  420  HIS420      0.1986
    149  NE2       28.5690   55.5800   63.5120 N.ar  420  HIS420     -0.2212
    150  N         28.8500   58.6030   59.7100 N.am  421  ASP421     -0.1974
    151  CA        30.1450   58.5270   59.0620 C.3   421  ASP421      0.1709
    152  C         30.1960   59.1520   57.6800 C.2   421  ASP421      0.2293
    153  O         31.1490   58.9230   56.9340 O.2   421  ASP421     -0.2864
    154  CB        30.5880   57.0720   58.9680 C.3   421  ASP421      0.1436
    155  CG        30.6170   56.3870   60.3160 C.2   421  ASP421      0.3671
    156  OD1       31.4030   56.8260   61.1790 O.co2 421  ASP421     -0.2456
    157  OD2       29.8560   55.4150   60.5080 O.co2 421  ASP421     -0.2456
    158  N         31.6990   63.0830   58.9350 N.3   465  ASP465     -0.1239
    159  CA        32.2900   63.0480   60.2700 C.3   465  ASP465      0.1674
    160  C         33.4270   64.0590   60.3740 C.2   465  ASP465      0.2266
    161  O         34.2930   64.1280   59.4950 O.2   465  ASP465     -0.2867
    162  CB        32.7980   61.6290   60.5630 C.3   465  ASP465      0.1410
    163  CG        33.3650   61.4750   61.9620 C.2   465  ASP465      0.3668
    164  OD1       32.7720   62.0050   62.9280 O.co2 465  ASP465     -0.2456
    165  OD2       34.4040   60.7970   62.0940 O.co2 465  ASP465     -0.2456
    166  N         27.8160   65.1350   63.0010 N.3   469  ARG469     -0.1245
    167  CA        27.4190   64.8650   64.3810 C.3   469  ARG469      0.1563
    168  C         27.1370   66.1750   65.1450 C.2   469  ARG469      0.2260
    169  O         27.6070   66.3680   66.2670 O.2   469  ARG469     -0.2867
    170  CB        28.5160   64.0760   65.0970 C.3   469  ARG469      0.0307
    171  CG        28.9300   62.8240   64.3660 C.3   469  ARG469      0.0489
    172  CD        29.9900   62.0730   65.1260 C.3   469  ARG469      0.2205
    173  NE        30.4770   60.9310   64.3680 N.pl3 469  ARG469     -0.0865
    174  CZ        31.4970   60.1710   64.7460 C.cat 469  ARG469      0.5346
    175  NH1       32.1440   60.4280   65.8770 N.pl3 469  ARG469      0.1354
    176  NH2       31.8780   59.1610   63.9810 N.pl3 469  ARG469      0.1354
@<TRIPOS>BOND
     1   134   131    1
     2   134   135    1
     3   132   131    1
     4   132   133    2
     5   131   130    1
     6   136   135   ar
     7   136   138   ar
     8   135   137   ar
     9   119   118    2
    10   138   139   ar
    11   130   118   am
    12   118   117    1
    13   137   139   ar
    14   117   120    1
    15   117   116    1
    16   120   121    1
    17   126   128   ar
    18   126   123   ar
    19   128   129   ar
    20   121   123   ar
    21   121   122   ar
    22   123   125   ar
    23   129   127   ar
    24   122   124   ar
    25   125   127   ar
    26   125   124   ar
    27    97    95   am
    28   153   152    2
    29    95    94    1
    30    95    96    2
    31    94    91    1
    32   152   151    1
    33    93    92    2
    34   109   110    2
    35   109   108    1
    36    91    92    1
    37    91    90    1
    38    92    98   am
    39   158   159    1
    40   154   151    1
    41   154   155    1
    42   151   150    1
    43   108   107    1
    44   108   111    1
    45   161   160    2
    46   103   104    1
    47   103   102    1
    48   106   104   ar
    49   150   142   am
    50   112   111    1
    51   112   113    1
    52    98    99    1
    53   104   105   ar
    54   114   113   ar
    55    47    46    2
    56   159   160    1
    57   159   162    1
    58   155   157   ar
    59   155   156   ar
    60    99   102    1
    61    99   100    1
    62   162   163    1
    63   113   115   ar
    64   140   141    1
    65    46    45    1
    66   142   143    2
    67   142   141    1
    68    48    45    1
    69    45    44    1
    70    88    87    1
    71   141   144    1
    72   100   101    2
    73    43    42   ar
    74    43    41   ar
    75    84    85    1
    76    84    87    1
    77    84    83    1
    78    85    86    2
    79    36    35    2
    80   163   165   ar
    81   163   164   ar
    82    42    40   ar
    83    74    72    1
    84    41    39   ar
    85    87    89    1
    86    83    77   am
    87    44    35   am
    88   146   148   ar
    89   146   145   ar
    90    35    34    1
    91   144   145    1
    92    70    69    1
    93    70    71    1
    94   148   149   ar
    95   166   167    1
    96   145   147   ar
    97    40    38   ar
    98    39    38   ar
    99    69    68    1
   100    72    71    2
   101    72    73    1
   102   149   147   ar
   103    77    78    2
   104    77    76    1
   105    38    37    1
   106   176   174    1
   107    34    37    1
   108    34    33    1
   109    76    75    1
   110    76    79    1
   111    81    80    2
   112   171   170    1
   113   171   172    1
   114   173   174    2
   115   173   172    1
   116   167   170    1
   117   167   168    1
   118    65    68    1
   119    65    66    1
   120    65    64    1
   121   174   175    1
   122    54    53    1
   123    66    67    2
   124    80    79    1
   125    80    82   am
   126   168   169    2
   127    49    50    1
   128    22    21    1
   129    53    50    1
   130    53    55    1
   131    32    30   ar
   132    32    31   ar
   133    30    28   ar
   134    21    20   ar
   135    21    19   ar
   136    50    51    1
   137    20    18   ar
   138    19    17   ar
   139    31    29   ar
   140    18    16   ar
   141    28    29   ar
   142    28    27    1
   143    62    63    1
   144    62    61    1
   145    17    16   ar
   146    51    52    2
   147    16    15    1
   148    23    24    1
   149    27    24    1
   150    59    58    2
   151     8     6   ar
   152     8    10   ar
   153    15    12    1
   154    61    60    1
   155    60    57    1
   156     5     6    1
   157     5     2    1
   158     6     7   ar
   159    10     9   ar
   160    24    25    1
   161     7     9   ar
   162    58    57    1
   163    57    56    1
   164    12    13    1
   165    12    11    1
   166     2     1    1
   167     2     3    1
   168    14    13    2
   169    25    26    2
   170     4     3    2
