@<TRIPOS>MOLECULE
tmp/1jieA01.pdb
 163 154 0 0 0
SMALL
GASTEIGER

@<TRIPOS>ATOM
      1  N         21.4120   -4.5400   15.1420 N.3    59  ALA59      -0.1231
      2  CA        20.3130   -5.2220   15.8170 C.3    59  ALA59       0.1694
      3  C         20.3110   -4.9520   17.3010 C.2    59  ALA59       0.2592
      4  O         19.2820   -4.8700   17.9830 O.2    59  ALA59      -0.2718
      5  CB        20.4300   -6.7170   15.5360 C.3    59  ALA59       0.0304
      6  N         21.4850   -4.7730   17.9340 N.am   60  ASP60      -0.1960
      7  CA        21.5560   -4.4960   19.3520 C.3    60  ASP60       0.1840
      8  C         21.1160   -3.0770   19.6380 C.2    60  ASP60       0.2622
      9  O         21.1850   -2.6620   20.7810 O.2    60  ASP60      -0.2715
     10  CB        23.0170   -4.5990   19.8580 C.3    60  ASP60       0.1450
     11  CG        23.4510   -6.0340   20.0300 C.2    60  ASP60       0.3671
     12  OD1       22.5340   -6.8450   20.2580 O.co2  60  ASP60      -0.2456
     13  OD2       24.6550   -6.3680   19.9540 O.co2  60  ASP60      -0.2456
     14  N         20.7050   -2.3170   18.6260 N.am   61  ASN61      -0.1958
     15  CA        20.2210   -0.9690   18.8080 C.3    61  ASN61       0.1819
     16  C         18.8660   -0.8070   18.1310 C.2    61  ASN61       0.2622
     17  O         18.3410    0.3020   18.0500 O.2    61  ASN61      -0.2715
     18  CB        21.2330    0.0260   18.2340 C.3    61  ASN61       0.1195
     19  CG        22.4210    0.1750   19.1690 C.2    61  ASN61       0.2630
     20  OD1       22.2920    0.9870   20.0840 O.2    61  ASN61      -0.2716
     21  ND2       23.5080   -0.5520   18.9200 N.am   61  ASN61      -0.0877
     22  N         18.2960   -1.9090   17.6440 N.am   62  THR62      -0.1937
     23  CA        17.0000   -1.8270   16.9920 C.3    62  THR62       0.2028
     24  C         15.8910   -1.9880   18.0240 C.2    62  THR62       0.2642
     25  O         16.0620   -2.7920   18.9350 O.2    62  THR62      -0.2714
     26  CB        16.8660   -2.8880   15.8920 C.3    62  THR62       0.1808
     27  OG1       17.8330   -2.4580   14.9090 O.3    62  THR62      -0.2208
     28  CG2       15.4770   -2.8980   15.2470 C.3    62  THR62       0.0379
     29  N         14.8000   -1.2410   17.9050 N.am   63  SER63      -0.1949
     30  CA        13.7220   -1.4170   18.9050 C.3    63  SER63       0.1924
     31  C         12.3780   -1.1400   18.3010 C.2    63  SER63       0.2314
     32  O         12.3120   -0.5800   17.2080 O.2    63  SER63      -0.2863
     33  CB        13.9550   -0.4920   20.1110 C.3    63  SER63       0.2116
     34  OG        13.9340    0.8650   19.7540 O.3    63  SER63      -0.2180
     35  N          7.8400   -0.5970   19.5200 N.3    65  TRP65      -0.1241
     36  CA         6.8170   -0.5050   20.5540 C.3    65  TRP65       0.1605
     37  C          5.5720   -1.1580   19.9650 C.2    65  TRP65       0.2264
     38  O          5.2030   -0.9140   18.8020 O.2    65  TRP65      -0.2867
     39  CB         6.4360    0.9190   20.9580 C.3    65  TRP65       0.0550
     40  CG         7.1780    1.3790   22.1840 C.ar   65  TRP65       0.0003
     41  CD1        6.6030    1.5100   23.4370 C.ar   65  TRP65       0.0946
     42  CD2        8.5580    1.7610   22.3150 C.ar   65  TRP65       0.0152
     43  NE1        7.5560    1.9500   24.3330 N.ar   65  TRP65      -0.2442
     44  CE2        8.7710    2.1160   23.6740 C.ar   65  TRP65       0.0810
     45  CE3        9.6530    1.8520   21.4690 C.ar   65  TRP65       0.0012
     46  CZ2       10.0030    2.5480   24.1920 C.ar   65  TRP65       0.0191
     47  CZ3       10.8780    2.2770   21.9740 C.ar   65  TRP65       0.0001
     48  CH2       11.0550    2.6170   23.3120 C.ar   65  TRP65       0.0015
     49  N          1.5130   -1.9160   20.9670 N.3    67  GLU67      -0.1245
     50  CA         0.4470   -1.6950   21.9700 C.3    67  GLU67       0.1567
     51  C         -0.4400   -2.9030   22.1150 C.2    67  GLU67       0.2260
     52  O         -0.8310   -3.4370   21.0740 O.2    67  GLU67      -0.2867
     53  CB        -0.3580   -0.4540   21.5630 C.3    67  GLU67       0.0388
     54  CG         0.5940    0.7410   21.7030 C.3    67  GLU67       0.1160
     55  CD        -0.0100    1.9930   21.1010 C.2    67  GLU67       0.3649
     56  OE1       -1.0320    1.9450   20.4020 O.co2  67  GLU67      -0.2457
     57  OE2        0.6150    3.0280   21.3680 O.co2  67  GLU67      -0.2457
     58  N         16.6000  -10.3890   32.7400 N.3    86  TYR86      -0.1227
     59  CA        16.9990   -9.5980   31.5740 C.3    86  TYR86       0.1736
     60  C         18.4980   -9.3280   31.5270 C.2    86  TYR86       0.2595
     61  O         19.0160   -9.1870   30.4110 O.2    86  TYR86      -0.2718
     62  CB        16.1990   -8.2970   31.5570 C.3    86  TYR86       0.0548
     63  CG        16.1890   -7.5260   30.2650 C.ar   86  TYR86      -0.0200
     64  CD1       15.4560   -7.9430   29.1640 C.ar   86  TYR86      -0.0009
     65  CD2       16.9270   -6.3400   30.1550 C.ar   86  TYR86      -0.0009
     66  CE1       15.4670   -7.2060   28.0020 C.ar   86  TYR86       0.0417
     67  CE2       16.9350   -5.6100   28.9750 C.ar   86  TYR86       0.0417
     68  CZ        16.1950   -6.0480   27.9020 C.ar   86  TYR86       0.1957
     69  OH        16.2110   -5.3230   26.7230 O.3    86  TYR86      -0.2866
     70  N         19.1620   -9.2650   32.6820 N.am   87  ALA87      -0.1980
     71  CA        20.5910   -8.9740   32.7660 C.3    87  ALA87       0.1597
     72  C         21.4230  -10.1120   32.2100 C.2    87  ALA87       0.2287
     73  O         22.5900   -9.8960   31.9030 O.2    87  ALA87      -0.2864
     74  CB        20.9860   -8.6690   34.1950 C.3    87  ALA87       0.0319
     75  N         22.5200  -11.9200   29.3020 N.3    89  THR89      -0.1218
     76  CA        22.5860  -11.7670   27.8470 C.3    89  THR89       0.1862
     77  C         23.0220  -13.0690   27.2070 C.2    89  THR89       0.2287
     78  O         23.5200  -13.1860   26.0850 O.2    89  THR89      -0.2866
     79  CB        23.4850  -10.5610   27.5340 C.3    89  THR89       0.1770
     80  OG1       22.7500   -9.3650   27.8980 O.3    89  THR89      -0.2211
     81  CG2       23.8450  -10.4150   26.0700 C.3    89  THR89       0.0375
     82  N         11.7890   -8.2010   30.6770 N.3    95  THR95      -0.1218
     83  CA        11.8300   -7.4060   31.8940 C.3    95  THR95       0.1862
     84  C         10.5890   -7.6300   32.7300 C.2    95  THR95       0.2287
     85  O          9.5910   -8.1650   32.2190 O.2    95  THR95      -0.2866
     86  CB        11.8990   -5.9010   31.5350 C.3    95  THR95       0.1770
     87  OG1       10.6170   -5.5170   31.0390 O.3    95  THR95      -0.2211
     88  CG2       12.8870   -5.6560   30.4200 C.3    95  THR95       0.0375
     89  N          5.7900    3.4760   32.4890 N.3   100  SER100     -0.1203
     90  CA         6.4720    4.4180   31.6050 C.3   100  SER100      0.2005
     91  C          5.5660    5.6050   31.3450 C.2   100  SER100      0.2461
     92  O          4.4020    5.5410   31.7800 O.2   100  SER100     -0.2732
     93  CB         6.8250    3.6990   30.2880 C.3   100  SER100      0.2103
     94  OG         5.6100    3.4720   29.5810 O.3   100  SER100     -0.2182
     95  N          6.0270    6.6440   30.6580 N.am  101  PRO101     -0.2717
     96  CA         5.1300    7.7340   30.2550 C.3   101  PRO101      0.1535
     97  C          3.8330    7.2700   29.6230 C.2   101  PRO101      0.2598
     98  O          2.8340    7.9940   29.7060 O.2   101  PRO101     -0.2715
     99  CB         5.9760    8.4860   29.2260 C.3   101  PRO101      0.0310
    100  CG         7.3730    8.3500   29.7760 C.3   101  PRO101      0.0237
    101  CD         7.4350    6.9280   30.2660 C.3   101  PRO101      0.0939
    102  N          3.7810    6.0940   29.0010 N.am  102  ALA102     -0.1978
    103  CA         2.5360    5.5960   28.4470 C.3   102  ALA102      0.1597
    104  C          1.8460    4.6160   29.3850 C.2   102  ALA102      0.2287
    105  O          0.7540    4.1130   29.0450 O.2   102  ALA102     -0.2864
    106  CB         2.7540    4.9100   27.1010 C.3   102  ALA102      0.0319
    107  N          4.1350   -1.3730   31.0550 N.3   105  GLU105     -0.1245
    108  CA         4.7350   -2.0440   29.9060 C.3   105  GLU105      0.1567
    109  C          5.8450   -2.9680   30.3630 C.2   105  GLU105      0.2260
    110  O          6.3200   -2.8960   31.5020 O.2   105  GLU105     -0.2867
    111  CB         5.3360   -1.0510   28.8970 C.3   105  GLU105      0.0388
    112  CG         6.4990   -0.2320   29.3970 C.3   105  GLU105      0.1160
    113  CD         7.7480   -0.2750   28.5420 C.2   105  GLU105      0.3649
    114  OE1        7.9180    0.6430   27.7020 O.co2 105  GLU105     -0.2457
    115  OE2        8.5940   -1.1760   28.7100 O.co2 105  GLU105     -0.2457
    116  N          9.3770   -5.2330   28.3590 N.3   107  ALA107     -0.1245
    117  CA        10.1270   -5.4280   27.1550 C.3   107  ALA107      0.1562
    118  C         10.6700   -6.8530   27.0600 C.2   107  ALA107      0.2260
    119  O         10.8890   -7.5450   28.0460 O.2   107  ALA107     -0.2867
    120  CB        11.2060   -4.3420   27.1100 C.3   107  ALA107      0.0290
    121  N         13.7780   -8.8620   24.7940 N.3   109  ARG109     -0.1245
    122  CA        14.9760   -8.8500   23.9980 C.3   109  ARG109      0.1563
    123  C         14.9860  -10.2070   23.2890 C.2   109  ARG109      0.2260
    124  O         15.0100  -11.2560   23.9690 O.2   109  ARG109     -0.2867
    125  CB        16.2410   -8.5850   24.8200 C.3   109  ARG109      0.0307
    126  CG        17.4770   -8.5250   23.9070 C.3   109  ARG109      0.0489
    127  CD        18.7800   -8.4290   24.7340 C.3   109  ARG109      0.2205
    128  NE        18.8450   -9.6620   25.5490 N.pl3 109  ARG109     -0.0865
    129  CZ        18.8850   -9.6950   26.8800 C.cat 109  ARG109      0.5346
    130  NH1       18.8920   -8.5750   27.5890 N.pl3 109  ARG109      0.1354
    131  NH2       18.9270  -10.8940   27.4550 N.pl3 109  ARG109      0.1354
    132  N         18.7540   -9.6400   19.3410 N.3   113  GLY113     -0.1225
    133  CA        19.2040   -8.4530   20.0850 C.3   113  GLY113      0.1811
    134  C         18.2130   -7.3090   20.0090 C.2   113  GLY113      0.2280
    135  O         18.4540   -6.2320   20.5640 O.2   113  GLY113     -0.2866
    136  N         15.0110   -5.0030   20.9320 N.3   115  CYS115     -0.1235
    137  CA        14.2640   -4.7520   22.1510 C.3   115  CYS115      0.1677
    138  C         12.9040   -4.2290   21.7710 C.2   115  CYS115      0.2270
    139  O         12.7170   -3.1440   21.2040 O.2   115  CYS115     -0.2867
    140  CB        15.0560   -3.7230   22.9710 C.3   115  CYS115      0.0956
    141  SG        14.2610   -3.2600   24.5180 S.3   115  CYS115     -0.0801
    142  N          9.0430   -3.2920   23.0780 N.3   117  HIS117     -0.1241
    143  CA         8.2540   -2.9410   24.2520 C.3   117  HIS117      0.1621
    144  C          6.7800   -3.2530   24.0030 C.2   117  HIS117      0.2264
    145  O          6.3100   -2.9290   22.9020 O.2   117  HIS117     -0.2867
    146  CB         8.3710   -1.4520   24.5940 C.3   117  HIS117      0.0745
    147  CG         9.7350   -1.0060   24.9430 C.ar  117  HIS117      0.0817
    148  ND1       10.0890   -0.5190   26.1780 N.ar  117  HIS117     -0.2268
    149  CD2       10.8800   -0.9570   24.2200 C.ar  117  HIS117      0.1154
    150  CE1       11.3850   -0.1900   26.2090 C.ar  117  HIS117      0.1986
    151  NE2       11.8820   -0.4580   25.0110 N.ar  117  HIS117     -0.2212
    152  N          3.2600   -2.3850   25.5050 N.3   119  THR119     -0.1203
    153  CA         2.7890   -1.2950   26.3420 C.3   119  THR119      0.1994
    154  C          1.2730   -1.2820   26.2880 C.2   119  THR119      0.2617
    155  O          0.7400   -1.6830   25.2530 O.2   119  THR119     -0.2717
    156  CB         3.3520    0.0560   25.8610 C.3   119  THR119      0.1784
    157  OG1        3.1440    1.0340   26.8830 O.3   119  THR119     -0.2211
    158  CG2        2.6030    0.5760   24.6450 C.3   119  THR119      0.0376
    159  N          0.6820   -0.8360   27.3760 N.am  120  ALA120     -0.1979
    160  CA        -0.7800   -0.7590   27.4340 C.3   120  ALA120      0.1597
    161  C         -1.2790    0.1960   26.3580 C.2   120  ALA120      0.2287
    162  O         -0.7080    1.2570   26.1090 O.2   120  ALA120     -0.2864
    163  CB        -1.1920   -0.3490   28.8430 C.3   120  ALA120      0.0319
@<TRIPOS>BOND
     1    27    26    1
     2     1     2    1
     3    28    26    1
     4     5     2    1
     5     2     3    1
     6    26    23    1
     7    23    22    1
     8    23    24    1
     9    32    31    2
    10     3     6   am
    11     3     4    2
    12    22    16   am
    13    29    24   am
    14    29    30    1
    15     6     7    1
    16    24    25    2
    17    17    16    2
    18    16    15    1
    19    18    15    1
    20    18    19    1
    21    31    30    1
    22    14    15    1
    23    14     8   am
    24    38    37    2
    25    30    33    1
    26    21    19   am
    27    19    20    2
    28   132   133    1
    29     7     8    1
    30     7    10    1
    31    35    36    1
    32     8     9    2
    33    34    33    1
    34    10    11    1
    35    13    11   ar
    36    37    36    1
    37   134   133    1
    38   134   135    2
    39    11    12   ar
    40    56    55   ar
    41    36    39    1
    42   136   137    1
    43    39    40    1
    44    49    50    1
    45    52    51    2
    46    55    57   ar
    47    55    54    1
    48   139   138    2
    49    45    47   ar
    50    45    42   ar
    51    53    54    1
    52    53    50    1
    53   138   137    1
    54    50    51    1
    55    47    48   ar
    56   137   140    1
    57    40    42   ar
    58    40    41   ar
    59    42    44   ar
    60   145   144    2
    61   140   141    1
    62   142   143    1
    63   123   124    2
    64   123   122    1
    65    48    46   ar
    66    41    43   ar
    67    44    46   ar
    68    44    43   ar
    69   126   127    1
    70   126   125    1
    71   122   121    1
    72   122   125    1
    73   144   143    1
    74   149   147   ar
    75   149   151   ar
    76   143   146    1
    77   146   147    1
    78   158   156    1
    79   127   128    1
    80   147   148   ar
    81   151   150   ar
    82   155   154    2
    83   152   153    1
    84   128   129    2
    85   156   153    1
    86   156   157    1
    87    81    79    1
    88    78    77    2
    89   162   161    2
    90   148   150   ar
    91   154   153    1
    92   154   159   am
    93   161   160    1
    94    69    68    1
    95   129   131    1
    96   129   130    1
    97   118   117    1
    98   118   119    2
    99   106   103    1
   100   120   117    1
   101   117   116    1
   102    77    76    1
   103   159   160    1
   104   160   163    1
   105    79    76    1
   106    79    80    1
   107   114   113   ar
   108    76    75    1
   109    68    66   ar
   110    68    67   ar
   111    66    64   ar
   112   103   102    1
   113   103   104    1
   114   113   115   ar
   115   113   112    1
   116   111   112    1
   117   111   108    1
   118    67    65   ar
   119   102    97   am
   120   105   104    2
   121    64    63   ar
   122    99   100    1
   123    99    96    1
   124    94    93    1
   125    97    98    2
   126    97    96    1
   127   100   101    1
   128   108   109    1
   129   108   107    1
   130    65    63   ar
   131    96    95    1
   132    63    62    1
   133   101    95    1
   134    93    90    1
   135   109   110    2
   136    61    60    2
   137    88    86    1
   138    95    91   am
   139    82    83    1
   140    87    86    1
   141    91    90    1
   142    91    92    2
   143    60    59    1
   144    60    70   am
   145    86    83    1
   146    62    59    1
   147    59    58    1
   148    90    89    1
   149    83    84    1
   150    73    72    2
   151    72    71    1
   152    85    84    2
   153    70    71    1
   154    71    74    1
