@<TRIPOS>MOLECULE
tmp/1jieA00.pdb
 128 121 0 0 0
SMALL
GASTEIGER

@<TRIPOS>ATOM
      1  N         10.4920   -2.6460   11.5820 N.3    10  VAL10      -0.1245
      2  CA        11.4470   -3.6150   11.0090 C.3    10  VAL10       0.1561
      3  C         12.5150   -3.9300   12.0610 C.2    10  VAL10       0.2260
      4  O         13.3530   -3.0910   12.4290 O.2    10  VAL10      -0.2867
      5  CB        12.0550   -3.0820    9.6910 C.3    10  VAL10       0.0252
      6  CG1       12.9830   -4.0860    8.9870 C.3    10  VAL10       0.0019
      7  CG2       10.9790   -2.6200    8.6990 C.3    10  VAL10       0.0019
      8  N         15.9030   -6.1410   13.0490 N.3    12  THR12      -0.1218
      9  CA        17.0230   -6.5650   12.1970 C.3    12  THR12       0.1862
     10  C         17.7070   -7.7780   12.8310 C.2    12  THR12       0.2287
     11  O         17.5930   -7.9960   14.0370 O.2    12  THR12      -0.2866
     12  CB        18.0750   -5.4890   11.9200 C.3    12  THR12       0.1770
     13  OG1       18.5870   -4.9070   13.1300 O.3    12  THR12      -0.2211
     14  CG2       17.4540   -4.3510   11.1260 C.3    12  THR12       0.0375
     15  N          4.2550  -14.9410    8.0200 N.3    32  ASP32      -0.1225
     16  CA         3.5800  -14.4230    6.8440 C.3    32  ASP32       0.1805
     17  C          4.2500  -14.8900    5.5550 C.2    32  ASP32       0.2597
     18  O          3.6900  -15.5000    4.6640 O.2    32  ASP32      -0.2718
     19  CB         3.7060  -12.9230    6.9480 C.3    32  ASP32       0.1424
     20  CG         2.5100  -12.0440    7.0250 C.2    32  ASP32       0.3668
     21  OD1        1.5250  -12.3420    6.3370 O.co2  32  ASP32      -0.2456
     22  OD2        2.5760  -11.0340    7.7570 O.co2  32  ASP32      -0.2456
     23  N          5.5360  -14.5890    5.4080 N.am   33  PHE33      -0.1976
     24  CA         6.3670  -14.8470    4.2630 C.3    33  PHE33       0.1639
     25  C          7.8140  -14.7840    4.7460 C.2    33  PHE33       0.2290
     26  O          8.0290  -14.1710    5.8150 O.2    33  PHE33      -0.2864
     27  CB         6.1620  -13.8000    3.1460 C.3    33  PHE33       0.0560
     28  CG         6.6640  -12.4010    3.5100 C.ar   33  PHE33      -0.0200
     29  CD1        7.9280  -11.8950    3.2420 C.ar   33  PHE33      -0.0042
     30  CD2        5.7850  -11.5580    4.1780 C.ar   33  PHE33      -0.0042
     31  CE1        8.3040  -10.6430    3.6510 C.ar   33  PHE33      -0.0003
     32  CE2        6.1630  -10.2840    4.5870 C.ar   33  PHE33      -0.0003
     33  CZ         7.4320   -9.8220    4.3120 C.ar   33  PHE33      -0.0000
     34  N         16.8090  -13.4920    3.7640 N.3    37  ASP37      -0.1225
     35  CA        17.1510  -12.0770    3.7570 C.3    37  ASP37       0.1805
     36  C         16.0700  -11.2000    4.4030 C.2    37  ASP37       0.2597
     37  O         16.4340  -10.1220    4.8400 O.2    37  ASP37      -0.2718
     38  CB        17.3890  -11.6190    2.3140 C.3    37  ASP37       0.1424
     39  CG        18.5800  -12.4040    1.7500 C.2    37  ASP37       0.3668
     40  OD1       19.6550  -12.3400    2.3820 O.co2  37  ASP37      -0.2456
     41  OD2       18.4040  -13.0840    0.7180 O.co2  37  ASP37      -0.2456
     42  N         14.8290  -11.6300    4.4210 N.am   38  PHE38      -0.1976
     43  CA        13.6970  -10.8110    4.8640 C.3    38  PHE38       0.1639
     44  C         12.4980  -11.6990    5.1280 C.2    38  PHE38       0.2290
     45  O         12.1930  -12.5640    4.3120 O.2    38  PHE38      -0.2864
     46  CB        13.4270   -9.7750    3.7840 C.3    38  PHE38       0.0560
     47  CG        12.6940   -8.5230    4.2450 C.ar   38  PHE38      -0.0200
     48  CD1       13.3740   -7.3660    4.5540 C.ar   38  PHE38      -0.0042
     49  CD2       11.3040   -8.5480    4.3580 C.ar   38  PHE38      -0.0042
     50  CE1       12.6790   -6.2550    5.0090 C.ar   38  PHE38      -0.0003
     51  CE2       10.6020   -7.4440    4.8470 C.ar   38  PHE38      -0.0003
     52  CZ        11.2990   -6.2980    5.1640 C.ar   38  PHE38      -0.0000
     53  N          8.4160  -11.8080    7.4130 N.3    40  GLY40      -0.1225
     54  CA         7.2790  -11.0710    7.9550 C.3    40  GLY40       0.1811
     55  C          6.5450  -11.9430    8.9450 C.2    40  GLY40       0.2280
     56  O          6.3050  -13.1060    8.6490 O.2    40  GLY40      -0.2866
     57  N          3.3090  -12.0100   12.1250 N.3    42  ARG42      -0.1245
     58  CA         2.1510  -11.2050   12.4940 C.3    42  ARG42       0.1563
     59  C          1.4250  -11.8300   13.6530 C.2    42  ARG42       0.2260
     60  O          1.4660  -13.0380   13.9250 O.2    42  ARG42      -0.2867
     61  CB         1.2650  -11.0660   11.2410 C.3    42  ARG42       0.0307
     62  CG        -0.1580  -11.5400   11.4630 C.3    42  ARG42       0.0489
     63  CD        -0.9430  -11.4960   10.1580 C.3    42  ARG42       0.2205
     64  NE        -0.2670  -12.2870    9.1520 N.pl3  42  ARG42      -0.0865
     65  CZ        -0.3110  -13.5820    8.8870 C.cat  42  ARG42       0.5346
     66  NH1       -1.0610  -14.4480    9.5600 N.pl3  42  ARG42       0.1354
     67  NH2        0.4460  -14.0410    7.8750 N.pl3  42  ARG42       0.1354
     68  N          1.7360   -6.3810   12.3380 N.3    47  ARG47      -0.1245
     69  CA         2.7770   -7.1170   11.6240 C.3    47  ARG47       0.1563
     70  C          4.1570   -6.5970   12.0450 C.2    47  ARG47       0.2260
     71  O          4.3470   -5.4300   12.4240 O.2    47  ARG47      -0.2867
     72  CB         2.5630   -6.9550   10.1160 C.3    47  ARG47       0.0307
     73  CG         1.4130   -7.7110    9.5060 C.3    47  ARG47       0.0489
     74  CD         1.2660   -7.4220    8.0120 C.3    47  ARG47       0.2205
     75  NE         1.0800   -6.0010    7.7390 N.pl3  47  ARG47      -0.0865
     76  CZ         1.5320   -5.3370    6.6780 C.cat  47  ARG47       0.5346
     77  NH1        2.2360   -5.8870    5.6900 N.pl3  47  ARG47       0.1354
     78  NH2        1.2830   -4.0320    6.5600 N.pl3  47  ARG47       0.1354
     79  N          8.2650   -6.8230   10.4100 N.3    49  HIS49      -0.1241
     80  CA         9.1800   -7.4230    9.4300 C.3    49  HIS49       0.1621
     81  C         10.5040   -7.7200   10.1440 C.2    49  HIS49       0.2264
     82  O         10.8700   -7.1200   11.1560 O.2    49  HIS49      -0.2867
     83  CB         9.4310   -6.4570    8.2720 C.3    49  HIS49       0.0745
     84  CG         8.2640   -6.1990    7.3610 C.ar   49  HIS49       0.0817
     85  ND1        7.2380   -7.1090    7.1400 N.ar   49  HIS49      -0.2268
     86  CD2        8.0110   -5.1230    6.5810 C.ar   49  HIS49       0.1154
     87  CE1        6.3880   -6.5850    6.2650 C.ar   49  HIS49       0.1986
     88  NE2        6.8360   -5.3880    5.9330 N.ar   49  HIS49      -0.2212
     89  N         14.4580   -7.9780    8.8990 N.3    51  SER51      -0.1202
     90  CA        15.3840   -7.8400    7.7790 C.3    51  SER51       0.2020
     91  C         16.8230   -8.2240    8.1270 C.2    51  SER51       0.2619
     92  O         17.3290   -7.8640    9.1980 O.2    51  SER51      -0.2717
     93  CB        15.3690   -6.3950    7.2910 C.3    51  SER51       0.2103
     94  OG        16.2410   -6.2010    6.1670 O.3    51  SER51      -0.2182
     95  N         17.5360   -8.8920    7.2280 N.am   52  ARG52      -0.1965
     96  CA        18.9220   -9.2800    7.4860 C.3    52  ARG52       0.1729
     97  C         19.8350   -8.0730    7.5340 C.2    52  ARG52       0.2617
     98  O         19.7180   -7.1470    6.7370 O.2    52  ARG52      -0.2715
     99  CB        19.4390  -10.2020    6.3780 C.3    52  ARG52       0.0348
    100  CG        20.8160  -10.7790    6.6910 C.3    52  ARG52       0.0492
    101  CD        21.1480  -11.8380    5.6330 C.3    52  ARG52       0.2205
    102  NE        21.5150  -11.1980    4.3700 N.pl3  52  ARG52      -0.0865
    103  CZ        22.7670  -10.8280    4.0890 C.cat  52  ARG52       0.5346
    104  NH1       23.7530  -11.0250    4.9540 N.pl3  52  ARG52       0.1354
    105  NH2       23.0080  -10.2520    2.9160 N.pl3  52  ARG52       0.1354
    106  N         20.7200   -8.0850    8.5240 N.am   53  THR53      -0.1937
    107  CA        21.7600   -7.0770    8.6700 C.3    53  THR53       0.2028
    108  C         23.1200   -7.7980    8.7980 C.2    53  THR53       0.2642
    109  O         23.2030   -8.9240    9.2940 O.2    53  THR53      -0.2714
    110  CB        21.5990   -6.0820    9.8240 C.3    53  THR53       0.1808
    111  OG1       22.6610   -5.1120    9.6660 O.3    53  THR53      -0.2208
    112  CG2       21.7870   -6.6330   11.2360 C.3    53  THR53       0.0379
    113  N         24.1680   -7.1280    8.2970 N.am   54  GLU54      -0.1976
    114  CA        25.4650   -7.7860    8.3630 C.3    54  GLU54       0.1602
    115  C         26.1660   -7.3250    9.6280 C.2    54  GLU54       0.2287
    116  O         27.1330   -7.9150   10.0630 O.2    54  GLU54      -0.2864
    117  CB        26.2940   -7.5100    7.1070 C.3    54  GLU54       0.0415
    118  CG        25.7570   -8.2210    5.8710 C.3    54  GLU54       0.1163
    119  CD        26.2850   -9.6330    5.7280 C.2    54  GLU54       0.3649
    120  OE1       26.3320  -10.3770    6.7310 O.co2  54  GLU54      -0.2457
    121  OE2       26.6500  -10.0520    4.6000 O.co2  54  GLU54      -0.2457
    122  N         23.7920   -3.1240   14.6760 N.3    58  VAL58      -0.1245
    123  CA        22.5240   -2.5440   14.1960 C.3    58  VAL58       0.1561
    124  C         21.3910   -3.2150   14.9610 C.2    58  VAL58       0.2260
    125  O         20.4730   -2.5650   15.4230 O.2    58  VAL58      -0.2867
    126  CB        22.3420   -2.7240   12.6910 C.3    58  VAL58       0.0252
    127  CG1       20.9280   -2.4390   12.1730 C.3    58  VAL58       0.0019
    128  CG2       23.3200   -1.8050   11.9200 C.3    58  VAL58       0.0019
@<TRIPOS>BOND
     1    41    39   ar
     2    39    38    1
     3    39    40   ar
     4    38    35    1
     5   105   103    1
     6    27    28    1
     7    27    24    1
     8    29    28   ar
     9    29    31   ar
    10    28    30   ar
    11    31    33   ar
    12    35    34    1
    13    35    36    1
    14    46    47    1
    15    46    43    1
    16   103   102    2
    17   103   104    1
    18    30    32   ar
    19    47    49   ar
    20    47    48   ar
    21    24    25    1
    22    24    23    1
    23    45    44    2
    24    33    32   ar
    25    49    51   ar
    26   102   101    1
    27    36    42   am
    28    36    37    2
    29    42    43    1
    30    48    50   ar
    31   121   119   ar
    32    18    17    2
    33    25    26    2
    34    51    52   ar
    35    43    44    1
    36    50    52   ar
    37    23    17   am
    38    17    16    1
    39   101   100    1
    40    77    76    1
    41   119   118    1
    42   119   120   ar
    43   118   117    1
    44    88    87   ar
    45    88    86   ar
    46    94    93    1
    47    87    85   ar
    48    21    20   ar
    49    99   100    1
    50    99    96    1
    51    78    76    1
    52    86    84   ar
    53    76    75    2
    54    98    97    2
    55    16    19    1
    56    16    15    1
    57    19    20    1
    58    20    22   ar
    59   117   114    1
    60    85    84   ar
    61    95    96    1
    62    95    91   am
    63    93    90    1
    64    84    83    1
    65    53    54    1
    66    96    97    1
    67    97   106   am
    68    75    74    1
    69    90    91    1
    70    90    89    1
    71    67    65    1
    72    54    55    1
    73    74    73    1
    74    91    92    2
    75    83    80    1
    76   113   114    1
    77   113   108   am
    78   114   115    1
    79   106   107    1
    80    56    55    2
    81   107   108    1
    82   107   110    1
    83     7     5    1
    84   108   109    2
    85    65    64    2
    86    65    66    1
    87     6     5    1
    88    64    63    1
    89    80    81    1
    90    80    79    1
    91    73    72    1
    92   115   116    2
    93   111   110    1
    94     5     2    1
    95   110   112    1
    96    72    69    1
    97    81    82    2
    98    63    62    1
    99     2     1    1
   100     2     3    1
   101    14    12    1
   102    61    62    1
   103    61    58    1
   104    69    70    1
   105    69    68    1
   106   128   126    1
   107    12     9    1
   108    12    13    1
   109    70    71    2
   110     3     4    2
   111    57    58    1
   112   127   126    1
   113     9    10    1
   114     9     8    1
   115    58    59    1
   116   126   123    1
   117    10    11    2
   118    59    60    2
   119   123   122    1
   120   123   124    1
   121   124   125    2
