@<TRIPOS>MOLECULE
tmp/1jifA01.pdb
 137 130 0 0 0
SMALL
GASTEIGER

@<TRIPOS>ATOM
      1  N         21.1190   -5.0920   17.6300 N.3    60  ASP60      -0.1225
      2  CA        21.1350   -4.7940   19.0650 C.3    60  ASP60       0.1805
      3  C         20.6660   -3.3920   19.3930 C.2    60  ASP60       0.2598
      4  O         20.6340   -2.9940   20.5730 O.2    60  ASP60      -0.2718
      5  CB        22.5800   -4.9000   19.5730 C.3    60  ASP60       0.1424
      6  CG        22.9220   -6.3670   19.7500 C.2    60  ASP60       0.3668
      7  OD1       21.9820   -7.1530   20.0090 O.co2  60  ASP60      -0.2456
      8  OD2       24.1200   -6.7230   19.6960 O.co2  60  ASP60      -0.2456
      9  N         20.3500   -2.5820   18.3900 N.am   61  ASN61      -0.1960
     10  CA        19.8330   -1.2480   18.6450 C.3    61  ASN61       0.1819
     11  C         18.4900   -0.9740   17.9660 C.2    61  ASN61       0.2622
     12  O         18.0170    0.1860   17.8990 O.2    61  ASN61      -0.2715
     13  CB        20.8600   -0.2290   18.2070 C.3    61  ASN61       0.1195
     14  CG        21.9710   -0.1800   19.2600 C.2    61  ASN61       0.2630
     15  OD1       21.8730    0.4270   20.3110 O.2    61  ASN61      -0.2716
     16  ND2       23.0750   -0.8370   19.0030 N.am   61  ASN61      -0.0877
     17  N         17.8080   -2.0480   17.4930 N.am   62  THR62      -0.1937
     18  CA        16.5120   -1.8900   16.8340 C.3    62  THR62       0.2028
     19  C         15.3710   -2.1020   17.8200 C.2    62  THR62       0.2642
     20  O         15.4730   -2.9810   18.6740 O.2    62  THR62      -0.2714
     21  CB        16.3840   -2.9320   15.7030 C.3    62  THR62       0.1808
     22  OG1       17.4240   -2.5950   14.7430 O.3    62  THR62      -0.2208
     23  CG2       15.0630   -2.9030   14.9500 C.3    62  THR62       0.0379
     24  N         14.2930   -1.3300   17.7110 N.am   63  SER63      -0.1949
     25  CA        13.1760   -1.6100   18.6330 C.3    63  SER63       0.1924
     26  C         11.8340   -1.3350   17.9770 C.2    63  SER63       0.2314
     27  O         11.7460   -0.8430   16.8250 O.2    63  SER63      -0.2863
     28  CB        13.3540   -0.7140   19.8660 C.3    63  SER63       0.2116
     29  OG        13.4020    0.6640   19.5090 O.3    63  SER63      -0.2180
     30  N          7.3460   -0.6430   19.0460 N.3    65  TRP65      -0.1241
     31  CA         6.2950   -0.5990   20.0840 C.3    65  TRP65       0.1605
     32  C          5.0410   -1.2680   19.5510 C.2    65  TRP65       0.2264
     33  O          4.6500   -1.0540   18.4040 O.2    65  TRP65      -0.2867
     34  CB         5.9760    0.8510   20.4360 C.3    65  TRP65       0.0550
     35  CG         6.6600    1.2690   21.7140 C.ar   65  TRP65       0.0003
     36  CD1        6.0260    1.3280   22.9740 C.ar   65  TRP65       0.0946
     37  CD2        7.9740    1.6700   21.9020 C.ar   65  TRP65       0.0152
     38  NE1        6.9270    1.7520   23.9040 N.ar   65  TRP65      -0.2442
     39  CE2        8.1340    1.9660   23.2640 C.ar   65  TRP65       0.0810
     40  CE3        9.0480    1.8200   21.0650 C.ar   65  TRP65       0.0012
     41  CZ2        9.3260    2.3990   23.8370 C.ar   65  TRP65       0.0191
     42  CZ3       10.2420    2.2520   21.6260 C.ar   65  TRP65       0.0001
     43  CH2       10.3890    2.5400   22.9820 C.ar   65  TRP65       0.0015
     44  N         16.1000  -10.6110   32.4590 N.3    86  TYR86      -0.1227
     45  CA        16.4440   -9.7610   31.2900 C.3    86  TYR86       0.1736
     46  C         17.9360   -9.4840   31.1820 C.2    86  TYR86       0.2595
     47  O         18.4550   -9.2730   30.0780 O.2    86  TYR86      -0.2718
     48  CB        15.6660   -8.4460   31.4140 C.3    86  TYR86       0.0548
     49  CG        15.6280   -7.6450   30.1230 C.ar   86  TYR86      -0.0200
     50  CD1       14.8450   -8.0760   29.0600 C.ar   86  TYR86      -0.0009
     51  CD2       16.3630   -6.4840   30.0040 C.ar   86  TYR86      -0.0009
     52  CE1       14.8180   -7.3350   27.8790 C.ar   86  TYR86       0.0417
     53  CE2       16.3450   -5.7310   28.8310 C.ar   86  TYR86       0.0417
     54  CZ        15.5590   -6.1860   27.8050 C.ar   86  TYR86       0.1957
     55  OH        15.5130   -5.4780   26.6270 O.3    86  TYR86      -0.2866
     56  N         18.6050   -9.4160   32.3220 N.am   87  ALA87      -0.1980
     57  CA        20.0180   -9.0420   32.4560 C.3    87  ALA87       0.1597
     58  C         20.8750  -10.0940   31.8050 C.2    87  ALA87       0.2287
     59  O         22.0360   -9.8930   31.4500 O.2    87  ALA87      -0.2864
     60  CB        20.4040   -8.9060   33.9350 C.3    87  ALA87       0.0319
     61  N         22.1530  -11.6810   28.9340 N.3    89  THR89      -0.1218
     62  CA        22.0180  -11.5790   27.4850 C.3    89  THR89       0.1862
     63  C         22.4530  -12.7540   26.6340 C.2    89  THR89       0.2287
     64  O         22.7500  -12.6150   25.4410 O.2    89  THR89      -0.2866
     65  CB        22.7670  -10.3140   27.0050 C.3    89  THR89       0.1770
     66  OG1       22.5340  -10.1130   25.6130 O.3    89  THR89      -0.2211
     67  CG2       24.2640  -10.5310   27.1870 C.3    89  THR89       0.0375
     68  N         11.1660   -8.2680   30.3500 N.3    95  THR95      -0.1218
     69  CA        11.2800   -7.4460   31.5860 C.3    95  THR95       0.1862
     70  C         10.0030   -7.6450   32.3430 C.2    95  THR95       0.2287
     71  O          9.0320   -8.1800   31.8310 O.2    95  THR95      -0.2866
     72  CB        11.3640   -5.9670   31.2190 C.3    95  THR95       0.1770
     73  OG1       10.1110   -5.5700   30.5720 O.3    95  THR95      -0.2211
     74  CG2       12.4600   -5.6340   30.1760 C.3    95  THR95       0.0375
     75  N          5.3600    3.4230   32.0280 N.3   100  SER100     -0.1203
     76  CA         6.0060    4.2510   31.0250 C.3   100  SER100      0.2005
     77  C          5.1530    5.4810   30.8310 C.2   100  SER100      0.2461
     78  O          3.9710    5.4780   31.2410 O.2   100  SER100     -0.2732
     79  CB         6.1360    3.4700   29.6770 C.3   100  SER100      0.2103
     80  OG         4.8400    3.5890   29.0740 O.3   100  SER100     -0.2182
     81  N          5.6000    6.5430   30.1840 N.am  101  PRO101     -0.2717
     82  CA         4.6740    7.6490   29.9090 C.3   101  PRO101      0.1535
     83  C          3.4870    7.1850   29.0770 C.2   101  PRO101      0.2598
     84  O          2.4380    7.8260   29.0830 O.2   101  PRO101     -0.2715
     85  CB         5.5020    8.6190   29.0680 C.3   101  PRO101      0.0310
     86  CG         6.9240    8.2790   29.4100 C.3   101  PRO101      0.0237
     87  CD         6.9540    6.7990   29.6770 C.3   101  PRO101      0.0939
     88  N          3.6100    6.0750   28.3570 N.am  102  ALA102     -0.1978
     89  CA         2.4940    5.5410   27.5910 C.3   102  ALA102      0.1597
     90  C          1.5770    4.6450   28.4220 C.2   102  ALA102      0.2287
     91  O          0.5000    4.3100   27.9070 O.2   102  ALA102     -0.2864
     92  CB         3.0450    4.7520   26.4020 C.3   102  ALA102      0.0319
     93  N          3.6340   -1.4190   30.7110 N.3   105  GLU105     -0.1245
     94  CA         4.2920   -2.0480   29.5530 C.3   105  GLU105      0.1567
     95  C          5.3720   -3.0020   30.0390 C.2   105  GLU105      0.2260
     96  O          5.8520   -2.9250   31.1700 O.2   105  GLU105     -0.2867
     97  CB         4.9000   -1.0120   28.6260 C.3   105  GLU105      0.0388
     98  CG         6.0630   -0.1980   29.0640 C.3   105  GLU105      0.1160
     99  CD         7.1820   -0.0390   28.0230 C.2   105  GLU105      0.3649
    100  OE1        8.1710   -0.7960   28.0980 O.co2 105  GLU105     -0.2457
    101  OE2        7.1390    0.8610   27.1470 O.co2 105  GLU105     -0.2457
    102  N          8.8730   -5.3340   28.0300 N.3   107  ALA107     -0.1245
    103  CA         9.5580   -5.4410   26.7290 C.3   107  ALA107      0.1562
    104  C         10.0990   -6.8570   26.5850 C.2   107  ALA107      0.2260
    105  O         10.3630   -7.5370   27.5870 O.2   107  ALA107     -0.2867
    106  CB        10.7210   -4.4690   26.6950 C.3   107  ALA107      0.0290
    107  N         13.2500   -8.8760   24.5820 N.3   109  ARG109     -0.1245
    108  CA        14.4550   -8.8320   23.7600 C.3   109  ARG109      0.1563
    109  C         14.5060  -10.1810   23.0070 C.2   109  ARG109      0.2260
    110  O         14.5650  -11.2340   23.6820 O.2   109  ARG109     -0.2867
    111  CB        15.7450   -8.6510   24.5140 C.3   109  ARG109      0.0307
    112  CG        16.9790   -8.6500   23.5690 C.3   109  ARG109      0.0489
    113  CD        18.2320   -8.4220   24.4680 C.3   109  ARG109      0.2205
    114  NE        18.3030   -9.6090   25.3220 N.pl3 109  ARG109     -0.0865
    115  CZ        18.3470   -9.7160   26.6330 C.cat 109  ARG109      0.5346
    116  NH1       18.3870   -8.6340   27.3650 N.pl3 109  ARG109      0.1354
    117  NH2       18.3840  -10.9000   27.2510 N.pl3 109  ARG109      0.1354
    118  N         18.2510   -9.6880   19.0320 N.3   113  GLY113     -0.1225
    119  CA        18.6520   -8.5000   19.8240 C.3   113  GLY113      0.1811
    120  C         17.6280   -7.3720   19.8120 C.2   113  GLY113      0.2280
    121  O         17.8920   -6.3550   20.4840 O.2   113  GLY113     -0.2866
    122  N         14.4460   -4.9870   20.6010 N.3   115  CYS115     -0.1235
    123  CA        13.6260   -4.7660   21.8100 C.3   115  CYS115      0.1677
    124  C         12.2340   -4.3330   21.4220 C.2   115  CYS115      0.2270
    125  O         12.0770   -3.2500   20.8600 O.2   115  CYS115     -0.2867
    126  CB        14.3080   -3.6630   22.6350 C.3   115  CYS115      0.0956
    127  SG        13.5320   -3.4130   24.2690 S.3   115  CYS115     -0.0801
    128  N          8.5110   -3.3400   22.6440 N.3   117  HIS117     -0.1297
    129  CA         7.7530   -2.9970   23.8350 C.3   117  HIS117      0.1306
    130  C          6.2690   -3.3060   23.6540 C.3   117  HIS117      0.2013
    131  O          5.8180   -2.9160   22.5770 O.3   117  HIS117     -0.2188
    132  CB         7.8400   -1.5120   24.1480 C.3   117  HIS117      0.0691
    133  CG         9.2560   -1.0670   24.3380 C.ar  117  HIS117      0.0814
    134  ND1        9.7400   -0.5720   25.5450 N.ar  117  HIS117     -0.2268
    135  CD2       10.2830   -1.0190   23.4510 C.ar  117  HIS117      0.1154
    136  CE1       11.0030   -0.2620   25.3740 C.ar  117  HIS117      0.1986
    137  NE2       11.3660   -0.5270   24.1170 N.ar  117  HIS117     -0.2212
@<TRIPOS>BOND
     1    22    21    1
     2    23    21    1
     3    21    18    1
     4    27    26    2
     5    18    17    1
     6    18    19    1
     7    17    11   am
     8     1     2    1
     9    24    19   am
    10    24    25    1
    11    19    20    2
    12    12    11    2
    13    11    10    1
    14    26    25    1
    15    13    10    1
    16    13    14    1
    17     9    10    1
    18     9     3   am
    19    33    32    2
    20    25    28    1
    21    16    14   am
    22   118   119    1
    23    30    31    1
    24     2     3    1
    25     2     5    1
    26    14    15    2
    27     3     4    2
    28    29    28    1
    29    32    31    1
    30     5     6    1
    31     8     6   ar
    32     6     7   ar
    33   120   119    1
    34   120   121    2
    35    31    34    1
    36    34    35    1
    37   122   123    1
    38   125   124    2
    39    40    42   ar
    40    40    37   ar
    41   124   123    1
    42    42    43   ar
    43    35    37   ar
    44    35    36   ar
    45   123   126    1
    46    37    39   ar
    47   131   130    1
    48   126   127    1
    49   128   129    1
    50    36    38   ar
    51    43    41   ar
    52   109   110    2
    53   109   108    1
    54    39    41   ar
    55    39    38   ar
    56   135   137   ar
    57   135   133   ar
    58   112   113    1
    59   112   111    1
    60   130   129    1
    61   108   111    1
    62   108   107    1
    63   129   132    1
    64   137   136   ar
    65   132   133    1
    66   133   134   ar
    67   113   114    1
    68   114   115    2
    69   136   134   ar
    70    64    63    2
    71    66    65    1
    72    92    89    1
    73   104   103    1
    74   104   105    2
    75    55    54    1
    76   115   117    1
    77   115   116    1
    78    63    62    1
    79   106   103    1
    80   103   102    1
    81    65    67    1
    82    65    62    1
    83   101    99   ar
    84    62    61    1
    85    89    88    1
    86    89    90    1
    87    54    52   ar
    88    54    53   ar
    89    52    50   ar
    90    91    90    2
    91    99   100   ar
    92    99    98    1
    93    88    83   am
    94    97    98    1
    95    97    94    1
    96    53    51   ar
    97    50    49   ar
    98    85    86    1
    99    85    82    1
   100    80    79    1
   101    83    84    2
   102    83    82    1
   103    86    87    1
   104    94    95    1
   105    94    93    1
   106    87    81    1
   107    79    76    1
   108    82    81    1
   109    51    49   ar
   110    95    96    2
   111    47    46    2
   112    49    48    1
   113    74    72    1
   114    81    77   am
   115    68    69    1
   116    73    72    1
   117    77    76    1
   118    77    78    2
   119    76    75    1
   120    46    45    1
   121    46    56   am
   122    72    69    1
   123    45    48    1
   124    45    44    1
   125    59    58    2
   126    69    70    1
   127    58    57    1
   128    71    70    2
   129    56    57    1
   130    57    60    1
