@<TRIPOS>MOLECULE
tmp/1jiiA00.pdb
 213 201 0 0 0
SMALL
GASTEIGER

@<TRIPOS>ATOM
      1  N         -7.3230    9.3930   94.8800 N.3    35  TYR35      -0.1227
      2  CA        -6.7930   10.2290   93.8250 C.3    35  TYR35       0.1736
      3  C         -7.8580   10.9700   92.9890 C.2    35  TYR35       0.2596
      4  O         -9.0550   10.7700   93.1530 O.2    35  TYR35      -0.2718
      5  CB        -5.9090    9.3570   92.9420 C.3    35  TYR35       0.0548
      6  CG        -6.5990    8.8140   91.7190 C.ar   35  TYR35      -0.0200
      7  CD1       -7.7460    8.0250   91.8150 C.ar   35  TYR35      -0.0009
      8  CD2       -6.1190    9.1070   90.4590 C.ar   35  TYR35      -0.0009
      9  CE1       -8.3800    7.5550   90.6770 C.ar   35  TYR35       0.0417
     10  CE2       -6.7490    8.6430   89.3380 C.ar   35  TYR35       0.0417
     11  CZ        -7.8650    7.8810   89.4580 C.ar   35  TYR35       0.1957
     12  OH        -8.4570    7.4840   88.3230 O.3    35  TYR35      -0.2866
     13  N         -7.4130   11.8630   92.1210 N.am   36  CYS36      -0.1956
     14  CA        -8.3030   12.5950   91.2340 C.3    36  CYS36       0.1846
     15  C         -7.4840   13.1490   90.0740 C.2    36  CYS36       0.2665
     16  O         -6.2420   13.2060   90.1430 O.2    36  CYS36      -0.2711
     17  CB        -9.0010   13.7350   91.9400 C.3    36  CYS36       0.0997
     18  SG       -10.1230   14.5850   90.8320 S.3    36  CYS36      -0.0797
     19  N         -8.1520   13.5760   89.0100 N.am   37  GLY37      -0.1716
     20  CA        -7.3910   14.0740   87.8980 C.2    37  GLY37       0.1480
     21  C         -8.1250   14.8100   86.8230 C.2    37  GLY37       0.2820
     22  O         -9.3480   14.8570   86.7550 O.2    37  GLY37      -0.2669
     23  N         -7.3320   15.3560   85.9270 N.am   38  ALA38      -0.1929
     24  CA        -7.8770   16.1070   84.8490 C.3    38  ALA38       0.1731
     25  C         -7.0390   15.8340   83.6310 C.2    38  ALA38       0.2616
     26  O         -5.9020   15.4280   83.7790 O.2    38  ALA38      -0.2715
     27  CB        -7.8060   17.5580   85.2030 C.3    38  ALA38       0.0334
     28  N         -7.6230   15.9720   82.4420 N.am   39  ASP39      -0.1971
     29  CA        -6.9040   15.8210   81.1840 C.3    39  ASP39       0.1709
     30  C         -6.5080   17.2570   80.9060 C.2    39  ASP39       0.2293
     31  O         -7.3340   18.1680   81.0710 O.2    39  ASP39      -0.2864
     32  CB        -7.8330   15.4520   80.0420 C.3    39  ASP39       0.1436
     33  CG        -8.4600   14.1340   80.2100 C.2    39  ASP39       0.3671
     34  OD1       -9.6970   14.0640   80.0490 O.co2  39  ASP39      -0.2456
     35  OD2       -7.7130   13.1720   80.4760 O.co2  39  ASP39      -0.2456
     36  N         -6.9200   19.6330   79.0670 N.3    41  THR41      -0.1218
     37  CA        -7.6710   20.1600   77.9510 C.3    41  THR41       0.1862
     38  C         -7.5130   21.7130   77.8580 C.2    41  THR41       0.2287
     39  O         -8.2000   22.3840   77.0800 O.2    41  THR41      -0.2866
     40  CB        -9.1480   19.6610   78.0790 C.3    41  THR41       0.1770
     41  OG1      -10.0590   20.5290   77.3850 O.3    41  THR41      -0.2211
     42  CG2       -9.5610   19.5140   79.5420 C.3    41  THR41       0.0375
     43  N         -9.4480   25.8620   86.8950 N.3    46  HIS46      -0.1241
     44  CA       -10.4460   26.9140   87.0030 C.3    46  HIS46       0.1621
     45  C        -11.3910   26.5790   88.1260 C.2    46  HIS46       0.2264
     46  O        -11.6210   25.3960   88.3280 O.2    46  HIS46      -0.2867
     47  CB       -11.1940   27.0370   85.6790 C.3    46  HIS46       0.0745
     48  CG       -12.0290   25.8450   85.3400 C.ar   46  HIS46       0.0817
     49  ND1      -11.5640   24.7960   84.5750 N.ar   46  HIS46      -0.2268
     50  CD2      -13.3230   25.5500   85.6230 C.ar   46  HIS46       0.1154
     51  CE1      -12.5360   23.9110   84.4030 C.ar   46  HIS46       0.1986
     52  NE2      -13.6140   24.3460   85.0310 N.ar   46  HIS46      -0.2212
     53  N        -14.0730   25.6400   88.6360 N.3    48  GLY48      -0.1210
     54  CA       -14.7350   24.3580   88.4450 C.3    48  GLY48       0.1956
     55  C        -13.9550   23.2050   89.0540 C.2    48  GLY48       0.2611
     56  O        -14.5480   22.3700   89.7240 O.2    48  GLY48      -0.2717
     57  N        -12.6470   23.1570   88.8280 N.am   49  HIS49      -0.1975
     58  CA       -11.7880   22.1200   89.3770 C.3    49  HIS49       0.1656
     59  C        -11.3010   22.3620   90.7890 C.2    49  HIS49       0.2291
     60  O        -10.7290   21.4620   91.3960 O.2    49  HIS49      -0.2864
     61  CB       -10.4920   22.0150   88.6200 C.3    49  HIS49       0.0771
     62  CG       -10.6450   21.9080   87.1530 C.ar   49  HIS49       0.0820
     63  ND1       -9.5520   21.9280   86.3190 N.ar   49  HIS49      -0.2267
     64  CD2      -11.7260   21.7210   86.3720 C.ar   49  HIS49       0.1154
     65  CE1       -9.9480   21.7480   85.0750 C.ar   49  HIS49       0.1986
     66  NE2      -11.2700   21.6190   85.0770 N.ar   49  HIS49      -0.2212
     67  N        -13.0970   19.7660   93.8770 N.3    52  PRO52      -0.2102
     68  CA       -12.5430   18.4660   94.2580 C.3    52  PRO52       0.1504
     69  C        -11.0680   18.3600   94.6160 C.2    52  PRO52       0.2575
     70  O        -10.7060   17.4340   95.3100 O.2    52  PRO52      -0.2718
     71  CB       -12.9340   17.5600   93.0880 C.3    52  PRO52       0.0282
     72  CG       -12.8540   18.4520   91.9510 C.3    52  PRO52       0.0208
     73  CD       -13.5330   19.7170   92.4640 C.3    52  PRO52       0.0893
     74  N        -10.1890   19.2450   94.1730 N.am   53  PHE53      -0.1977
     75  CA        -8.8100   19.0790   94.6200 C.3    53  PHE53       0.1639
     76  C         -8.6900   19.5510   96.0520 C.2    53  PHE53       0.2290
     77  O         -7.7540   19.1900   96.7700 O.2    53  PHE53      -0.2864
     78  CB        -7.8320   19.7930   93.7260 C.3    53  PHE53       0.0560
     79  CG        -7.6920   19.1490   92.4070 C.ar   53  PHE53      -0.0200
     80  CD1       -7.3040   17.8160   92.3220 C.ar   53  PHE53      -0.0042
     81  CD2       -8.0160   19.8380   91.2420 C.ar   53  PHE53      -0.0042
     82  CE1       -7.2470   17.1700   91.0870 C.ar   53  PHE53      -0.0003
     83  CE2       -7.9610   19.2070   89.9990 C.ar   53  PHE53      -0.0003
     84  CZ        -7.5770   17.8670   89.9210 C.ar   53  PHE53      -0.0000
     85  N         -3.7370   12.8200   89.0030 N.3    69  LEU69      -0.1231
     86  CA        -3.5320   12.3080   87.6540 C.3    69  LEU69       0.1693
     87  C         -3.8730   13.4330   86.6680 C.2    69  LEU69       0.2592
     88  O         -4.9730   13.9850   86.6500 O.2    69  LEU69      -0.2718
     89  CB        -4.3770   11.0280   87.3740 C.3    69  LEU69       0.0284
     90  CG        -3.8640    9.8440   86.4950 C.3    69  LEU69       0.0019
     91  CD1       -3.2700    8.7280   87.3010 C.3    69  LEU69       0.0001
     92  CD2       -4.9520    9.2540   85.6950 C.3    69  LEU69       0.0001
     93  N         -2.8400   13.8820   85.9830 N.am   70  ILE70      -0.1966
     94  CA        -2.9370   14.9070   84.9670 C.3    70  ILE70       0.1727
     95  C         -3.2530   14.0630   83.7450 C.2    70  ILE70       0.2616
     96  O         -2.8170   12.9210   83.6870 O.2    70  ILE70      -0.2715
     97  CB        -1.5820   15.5650   84.8370 C.3    70  ILE70       0.0290
     98  CG1       -1.4280   16.5660   85.9610 C.3    70  ILE70       0.0022
     99  CG2       -1.3760   16.1340   83.4750 C.3    70  ILE70       0.0023
    100  CD1       -0.0310   16.8000   86.2840 C.3    70  ILE70       0.0001
    101  N         -3.9510   14.6100   82.7540 N.am   71  GLY71      -0.1955
    102  CA        -4.3300   13.8220   81.5890 C.3    71  GLY71       0.1869
    103  C         -3.3250   13.4710   80.4910 C.2    71  GLY71       0.2309
    104  O         -3.7160   13.4280   79.3200 O.2    71  GLY71      -0.2863
    105  N         -5.1190   10.3280   78.4070 N.3    74  THR74      -0.1218
    106  CA        -6.5520   10.4650   78.1560 C.3    74  THR74       0.1862
    107  C         -6.8100   11.8940   77.7440 C.2    74  THR74       0.2287
    108  O         -7.8780   12.1990   77.2290 O.2    74  THR74      -0.2866
    109  CB        -7.3870   10.1580   79.4120 C.3    74  THR74       0.1770
    110  OG1       -6.5160   10.1260   80.5510 O.3    74  THR74      -0.2211
    111  CG2       -8.1160    8.8270   79.2880 C.3    74  THR74       0.0375
    112  N        -12.7570   13.3860   77.2730 N.3    79  ASP79      -0.1239
    113  CA       -13.8730   12.6790   77.8830 C.3    79  ASP79       0.1674
    114  C        -15.2360   13.2410   77.4800 C.2    79  ASP79       0.2266
    115  O        -15.7170   14.1910   78.0720 O.2    79  ASP79      -0.2867
    116  CB       -13.7480   12.6710   79.4180 C.3    79  ASP79       0.1410
    117  CG       -14.8780   11.8860   80.1110 C.2    79  ASP79       0.3668
    118  OD1      -15.8090   11.3640   79.4600 O.co2  79  ASP79      -0.2456
    119  OD2      -14.8270   11.7720   81.3390 O.co2  79  ASP79      -0.2456
    120  N        -17.9370   12.7880   78.3860 N.3    81  SER81      -0.1217
    121  CA       -18.8420   12.9470   79.5170 C.3    81  SER81       0.1889
    122  C        -19.4110   14.3510   79.5320 C.2    81  SER81       0.2288
    123  O        -18.7030   15.3460   79.3610 O.2    81  SER81      -0.2866
    124  CB       -18.1580   12.5980   80.8500 C.3    81  SER81       0.2089
    125  OG       -17.9980   11.1930   81.0340 O.3    81  SER81      -0.2183
    126  N        -20.4950   16.3500   77.5580 N.3    83  LYS83      -0.1245
    127  CA       -20.5270   16.9170   76.2310 C.3    83  LYS83       0.1561
    128  C        -21.6230   16.2940   75.4260 C.2    83  LYS83       0.2260
    129  O        -22.1010   15.2260   75.7600 O.2    83  LYS83      -0.2867
    130  CB       -19.1960   16.7280   75.5160 C.3    83  LYS83       0.0271
    131  CG       -18.0260   17.4870   76.1100 C.3    83  LYS83       0.0035
    132  CD       -17.3800   16.7210   77.2370 C.3    83  LYS83       0.0206
    133  CE       -16.1410   17.4330   77.7480 C.3    83  LYS83       0.1093
    134  NZ       -15.4710   16.7880   78.9590 N.3    83  LYS83      -0.1314
    135  N         -0.7030    9.6880   83.5230 N.3   123  ASN123     -0.1240
    136  CA        -1.0870    8.4680   82.8640 C.3   123  ASN123      0.1653
    137  C         -0.5280    8.2900   81.4790 C.2   123  ASN123      0.2266
    138  O         -0.8780    7.3710   80.7730 O.2   123  ASN123     -0.2867
    139  CB        -2.5930    8.2290   82.9100 C.3   123  ASN123      0.1155
    140  CG        -3.3610    9.2280   82.1380 C.2   123  ASN123      0.2627
    141  OD1       -2.7880   10.0270   81.4140 O.2   123  ASN123     -0.2716
    142  ND2       -4.6820    9.1900   82.2680 N.am  123  ASN123     -0.0877
    143  N        -13.0510    5.8580   75.5220 N.3   169  TYR169     -0.1241
    144  CA       -12.3970    6.6940   76.5510 C.3   169  TYR169      0.1605
    145  C        -12.4590    6.0240   77.9120 C.2   169  TYR169      0.2264
    146  O        -11.4430    5.8630   78.5940 O.2   169  TYR169     -0.2867
    147  CB       -13.0710    8.0710   76.6530 C.3   169  TYR169      0.0534
    148  CG       -12.3830    9.0260   77.6160 C.ar  169  TYR169     -0.0201
    149  CD1      -12.8090    9.1430   78.9370 C.ar  169  TYR169     -0.0009
    150  CD2      -11.2590    9.7610   77.2250 C.ar  169  TYR169     -0.0009
    151  CE1      -12.1290    9.9550   79.8470 C.ar  169  TYR169      0.0417
    152  CE2      -10.5740   10.5760   78.1350 C.ar  169  TYR169      0.0417
    153  CZ       -11.0150   10.6600   79.4440 C.ar  169  TYR169      0.1957
    154  OH       -10.3180   11.3970   80.3730 O.3   169  TYR169     -0.2866
    155  N         -9.7590    5.2640   81.0280 N.3   173  GLN173     -0.1245
    156  CA        -9.8380    5.8120   82.3660 C.3   173  GLN173      0.1566
    157  C         -9.9860    4.7020   83.3940 C.2   173  GLN173      0.2260
    158  O         -9.3470    4.7670   84.4410 O.2   173  GLN173     -0.2867
    159  CB       -10.9450    6.8420   82.5060 C.3   173  GLN173      0.0367
    160  CG       -10.9250    7.5290   83.8530 C.3   173  GLN173      0.0905
    161  CD       -11.9460    8.6210   83.9490 C.2   173  GLN173      0.2608
    162  OE1      -12.6030    8.7980   84.9600 O.2   173  GLN173     -0.2717
    163  NE2      -12.0510    9.3930   82.9050 N.am  173  GLN173     -0.0878
    164  N         -6.8460    3.1230   84.3640 N.3   176  ASP176     -0.1239
    165  CA        -6.0800    3.9220   85.3180 C.3   176  ASP176      0.1674
    166  C         -6.4090    3.5750   86.7250 C.2   176  ASP176      0.2266
    167  O         -5.5020    3.3400   87.5180 O.2   176  ASP176     -0.2867
    168  CB        -6.3610    5.4120   85.1870 C.3   176  ASP176      0.1410
    169  CG        -5.9860    5.9680   83.8530 C.2   176  ASP176      0.3668
    170  OD1       -6.8920    6.4960   83.1850 O.co2 176  ASP176     -0.2456
    171  OD2       -4.7950    5.9080   83.4920 O.co2 176  ASP176     -0.2456
    172  N        -11.5850    6.9360   94.5340 N.3   189  GLN189     -0.1245
    173  CA       -11.3170    7.8890   93.4740 C.3   189  GLN189      0.1566
    174  C        -12.4510    8.8950   93.5290 C.2   189  GLN189      0.2260
    175  O        -13.6200    8.5390   93.2990 O.2   189  GLN189     -0.2867
    176  CB       -11.2920    7.2240   92.1080 C.3   189  GLN189      0.0367
    177  CG       -11.5310    8.2100   91.0070 C.3   189  GLN189      0.0905
    178  CD       -11.6180    7.5990   89.6420 C.2   189  GLN189      0.2608
    179  OE1      -10.7660    7.8280   88.8130 O.2   189  GLN189     -0.2717
    180  NE2      -12.6820    6.8670   89.3840 N.am  189  GLN189     -0.0878
    181  N        -14.3200   12.4550   92.3750 N.3   191  GLY191     -0.1210
    182  CA       -14.5140   13.2620   91.1950 C.3   191  GLY191      0.1956
    183  C        -15.9080   13.8290   91.0940 C.2   191  GLY191      0.2612
    184  O        -16.8270   13.4190   91.8080 O.2   191  GLY191     -0.2717
    185  N        -16.0600   14.7840   90.1880 N.am  192  GLY192     -0.1956
    186  CA       -17.3480   15.4200   89.9910 C.3   192  GLY192      0.1869
    187  C        -18.4400   14.4960   89.5070 C.2   192  GLY192      0.2309
    188  O        -18.1710   13.4130   89.0240 O.2   192  GLY192     -0.2863
    189  N        -19.9260   14.6190   86.9460 N.3   194  ASP194     -0.1225
    190  CA       -19.7010   14.3940   85.5220 C.3   194  ASP194      0.1805
    191  C        -18.7560   13.2200   85.3930 C.2   194  ASP194      0.2597
    192  O        -18.4100   12.8130   84.3020 O.2   194  ASP194     -0.2718
    193  CB       -19.0540   15.6270   84.8890 C.3   194  ASP194      0.1424
    194  CG       -17.7860   16.0630   85.6100 C.2   194  ASP194      0.3668
    195  OD1      -16.7700   16.3390   84.9370 O.co2 194  ASP194     -0.2456
    196  OD2      -17.8060   16.1340   86.8590 O.co2 194  ASP194     -0.2456
    197  N        -18.3140   12.6980   86.5280 N.am  195  GLN195     -0.1979
    198  CA       -17.3920   11.5750   86.5730 C.3   195  GLN195      0.1601
    199  C        -17.9670   10.2860   87.1760 C.2   195  GLN195      0.2287
    200  O        -17.2350    9.3200   87.3900 O.2   195  GLN195     -0.2864
    201  CB       -16.1260   11.9940   87.3160 C.3   195  GLN195      0.0394
    202  CG       -14.9540   12.3120   86.4020 C.3   195  GLN195      0.0908
    203  CD       -15.3880   12.8610   85.0760 C.2   195  GLN195      0.2608
    204  OE1      -16.1320   13.8280   85.0000 O.2   195  GLN195     -0.2717
    205  NE2      -14.9260   12.2420   84.0170 N.am  195  GLN195     -0.0878
    206  N        -16.1020    6.7470   87.0770 N.3   199  ILE199     -0.1245
    207  CA       -15.7390    6.2790   88.4170 C.3   199  ILE199      0.1561
    208  C        -16.2210    4.8660   88.5890 C.2   199  ILE199      0.2260
    209  O        -15.4370    3.9490   88.8170 O.2   199  ILE199     -0.2867
    210  CB       -16.3310    7.2100   89.5000 C.3   199  ILE199      0.0252
    211  CG1      -15.2890    8.2290   89.8890 C.3   199  ILE199      0.0019
    212  CG2      -16.6770    6.4740   90.7620 C.3   199  ILE199      0.0019
    213  CD1      -14.5930    8.8390   88.7190 C.3   199  ILE199      0.0001
@<TRIPOS>BOND
     1   128   129    2
     2   128   127    1
     3   130   131    1
     4   130   127    1
     5   143   144    1
     6   131   132    1
     7   127   126    1
     8   144   147    1
     9   144   145    1
    10   147   148    1
    11    39    38    2
    12   150   148   ar
    13   150   152   ar
    14   108   107    2
    15   132   133    1
    16   112   113    1
    17    41    40    1
    18   114   113    1
    19   114   115    2
    20   148   149   ar
    21   107   106    1
    22   133   134    1
    23    38    37    1
    24   113   116    1
    25   145   146    2
    26    37    40    1
    27    37    36    1
    28    40    42    1
    29   152   153   ar
    30   106   105    1
    31   106   109    1
    32   120   121    1
    33   149   151   ar
    34   111   109    1
    35   104   103    2
    36   123   122    2
    37   109   110    1
    38   116   117    1
    39   153   151   ar
    40   153   154    1
    41   118   117   ar
    42   121   122    1
    43   121   124    1
    44    32    33    1
    45    32    29    1
    46    34    33   ar
    47   117   119   ar
    48    33    35   ar
    49   103   102    1
    50   138   137    2
    51   124   125    1
    52    30    31    2
    53    30    29    1
    54   155   156    1
    55    29    28    1
    56   141   140    2
    57   137   136    1
    58   102   101    1
    59   140   142   am
    60   140   139    1
    61   156   159    1
    62   156   157    1
    63    28    25   am
    64   159   160    1
    65   101    95   am
    66   136   139    1
    67   136   135    1
    68   163   161   am
    69   170   169   ar
    70   157   158    2
    71    99    97    1
    72   171   169   ar
    73    25    26    2
    74    25    24    1
    75    96    95    2
    76    95    94    1
    77   160   161    1
    78   169   168    1
    79   161   162    2
    80   205   203   am
    81   192   191    2
    82   164   165    1
    83    51    49   ar
    84    51    52   ar
    85    49    48   ar
    86    97    94    1
    87    97    98    1
    88    24    27    1
    89    24    23    1
    90   193   190    1
    91   193   194    1
    92   195   194   ar
    93    94    93    1
    94   204   203    2
    95    52    50   ar
    96    65    66   ar
    97    65    63   ar
    98   203   202    1
    99    66    64   ar
   100   168   165    1
   101   165   166    1
   102    48    50   ar
   103    48    47    1
   104   191   190    1
   105   191   197   am
   106   190   189    1
   107   194   196   ar
   108    47    44    1
   109    92    90    1
   110    23    21   am
   111    98   100    1
   112    93    87   am
   113    63    62   ar
   114    64    62   ar
   115   202   201    1
   116    90    91    1
   117    90    89    1
   118   197   198    1
   119   198   199    1
   120   198   201    1
   121    88    87    2
   122    87    86    1
   123   166   167    2
   124    22    21    2
   125    21    20    1
   126    43    44    1
   127    44    45    1
   128   206   207    1
   129    62    61    1
   130   199   200    2
   131    89    86    1
   132    86    85    1
   133    20    19    2
   134    45    46    2
   135    12    11    1
   136   207   208    1
   137   207   210    1
   138    54    53    1
   139    54    55    1
   140   208   209    2
   141    61    58    1
   142   213   211    1
   143   179   178    2
   144    57    55   am
   145    57    58    1
   146    19    15    1
   147   188   187    2
   148    55    56    2
   149    10    11   ar
   150    10     8   ar
   151    58    59    1
   152   180   178   am
   153    11     9   ar
   154   210   211    1
   155   210   212    1
   156   187   186    1
   157   178   177    1
   158    84    83   ar
   159    84    82   ar
   160   186   185    1
   161    83    81   ar
   162    15    16    2
   163    15    14    1
   164   185   183   am
   165     8     6   ar
   166     9     7   ar
   167    59    60    2
   168    18    17    1
   169   177   176    1
   170    82    80   ar
   171   183   182    1
   172   183   184    2
   173   182   181    1
   174    14    17    1
   175    14    13    1
   176    81    79   ar
   177     6     7   ar
   178     6     5    1
   179    72    73    1
   180    72    71    1
   181   176   173    1
   182    13     3   am
   183    80    79   ar
   184    79    78    1
   185    73    67    1
   186     5     2    1
   187     3     4    2
   188     3     2    1
   189    71    68    1
   190   175   174    2
   191   173   174    1
   192   173   172    1
   193    78    75    1
   194     2     1    1
   195    67    68    1
   196    74    69   am
   197    74    75    1
   198    68    69    1
   199    69    70    2
   200    75    76    1
   201    76    77    2
