@<TRIPOS>MOLECULE
tmp/1jijA00.pdb
 195 184 0 0 0
SMALL
GASTEIGER

@<TRIPOS>ATOM
      1  N         -7.2660    9.4620   95.6520 N.3    35  TYR35      -0.1227
      2  CA        -6.7180   10.2680   94.5530 C.3    35  TYR35       0.1736
      3  C         -7.7760   10.9490   93.6730 C.2    35  TYR35       0.2596
      4  O         -8.9790   10.6470   93.7190 O.2    35  TYR35      -0.2718
      5  CB        -5.8250    9.3940   93.6680 C.3    35  TYR35       0.0548
      6  CG        -6.5220    8.8260   92.4430 C.ar   35  TYR35      -0.0200
      7  CD1       -7.6690    8.0280   92.5510 C.ar   35  TYR35      -0.0009
      8  CD2       -6.0580    9.1240   91.1720 C.ar   35  TYR35      -0.0009
      9  CE1       -8.3320    7.5520   91.4130 C.ar   35  TYR35       0.0417
     10  CE2       -6.7170    8.6510   90.0370 C.ar   35  TYR35       0.0417
     11  CZ        -7.8450    7.8740   90.1710 C.ar   35  TYR35       0.1957
     12  OH        -8.4680    7.4430   89.0440 O.3    35  TYR35      -0.2866
     13  N         -7.3000   11.9030   92.8940 N.am   36  CYS36      -0.1956
     14  CA        -8.1460   12.6350   91.9680 C.3    36  CYS36       0.1843
     15  C         -7.2940   13.0520   90.7820 C.2    36  CYS36       0.2626
     16  O         -6.0580   13.0500   90.8690 O.2    36  CYS36      -0.2714
     17  CB        -8.7410   13.8780   92.5970 C.3    36  CYS36       0.0997
     18  SG       -10.0280   14.5310   91.5470 S.3    36  CYS36      -0.0797
     19  N         -7.9220   13.4240   89.6730 N.am   37  GLY37      -0.1940
     20  CA        -7.1010   13.7980   88.5500 C.3    37  GLY37       0.2014
     21  C         -7.7940   14.7110   87.6030 C.2    37  GLY37       0.2639
     22  O         -8.9900   14.9030   87.6940 O.2    37  GLY37      -0.2714
     23  N         -7.0290   15.2520   86.6740 N.am   38  ALA38      -0.1963
     24  CA        -7.5760   16.1500   85.6790 C.3    38  ALA38       0.1728
     25  C         -6.7490   16.0960   84.3900 C.2    38  ALA38       0.2616
     26  O         -5.5160   15.9840   84.4640 O.2    38  ALA38      -0.2715
     27  CB        -7.5960   17.5520   86.2370 C.3    38  ALA38       0.0334
     28  N         -7.3970   16.1060   83.2200 N.am   39  ASP39      -0.1971
     29  CA        -6.6370   16.0880   81.9610 C.3    39  ASP39       0.1709
     30  C         -6.2250   17.5250   81.6450 C.2    39  ASP39       0.2293
     31  O         -6.9460   18.4750   81.9830 O.2    39  ASP39      -0.2864
     32  CB        -7.4580   15.5610   80.7940 C.3    39  ASP39       0.1436
     33  CG        -7.8280   14.1140   80.9370 C.2    39  ASP39       0.3671
     34  OD1       -9.0380   13.8290   80.7980 O.co2  39  ASP39      -0.2456
     35  OD2       -6.9270   13.2700   81.1500 O.co2  39  ASP39      -0.2456
     36  N         -6.6010   19.7460   79.5790 N.3    41  THR41      -0.1218
     37  CA        -7.4160   20.3560   78.5550 C.3    41  THR41       0.1862
     38  C         -7.3270   21.8940   78.5370 C.2    41  THR41       0.2287
     39  O         -8.1160   22.5510   77.8720 O.2    41  THR41      -0.2866
     40  CB        -8.9080   19.8420   78.6420 C.3    41  THR41       0.1770
     41  OG1       -9.8280   20.8270   78.1350 O.3    41  THR41      -0.2211
     42  CG2       -9.3070   19.4380   80.0720 C.3    41  THR41       0.0375
     43  N         -9.5520   26.0330   86.9780 N.3    46  HIS46      -0.1241
     44  CA       -10.5630   27.0650   87.1580 C.3    46  HIS46       0.1621
     45  C        -11.2960   26.6880   88.4520 C.2    46  HIS46       0.2264
     46  O        -11.2690   25.5250   88.8450 O.2    46  HIS46      -0.2867
     47  CB       -11.5130   27.1160   85.9270 C.3    46  HIS46       0.0745
     48  CG       -12.2080   25.8160   85.6280 C.ar   46  HIS46       0.0817
     49  ND1      -13.5820   25.7080   85.5350 N.ar   46  HIS46      -0.2268
     50  CD2      -11.7230   24.5590   85.4650 C.ar   46  HIS46       0.1154
     51  CE1      -13.9100   24.4420   85.3380 C.ar   46  HIS46       0.1986
     52  NE2      -12.8020   23.7240   85.2900 N.ar   46  HIS46      -0.2212
     53  N        -13.9190   25.5960   89.1990 N.3    48  GLY48      -0.1210
     54  CA       -14.7160   24.3820   89.1790 C.3    48  GLY48       0.1956
     55  C        -13.8720   23.2210   89.7000 C.2    48  GLY48       0.2611
     56  O        -14.3870   22.2420   90.2360 O.2    48  GLY48      -0.2717
     57  N        -12.5580   23.3550   89.5670 N.am   49  HIS49      -0.1975
     58  CA       -11.6110   22.3380   90.0120 C.3    49  HIS49       0.1656
     59  C        -11.1650   22.5880   91.4410 C.2    49  HIS49       0.2291
     60  O        -10.4070   21.7850   91.9950 O.2    49  HIS49      -0.2864
     61  CB       -10.3470   22.3520   89.1520 C.3    49  HIS49       0.0771
     62  CG       -10.5810   22.0520   87.7070 C.ar   49  HIS49       0.0820
     63  ND1       -9.5530   22.0130   86.7860 N.ar   49  HIS49      -0.2267
     64  CD2      -11.7110   21.7460   87.0230 C.ar   49  HIS49       0.1154
     65  CE1      -10.0350   21.6870   85.6030 C.ar   49  HIS49       0.1986
     66  NE2      -11.3440   21.5220   85.7180 N.ar   49  HIS49      -0.2212
     67  N        -13.1740   19.7930   94.3390 N.3    52  PRO52      -0.2102
     68  CA       -12.4770   18.4970   94.4110 C.3    52  PRO52       0.1504
     69  C        -11.0540   18.4530   94.9530 C.2    52  PRO52       0.2575
     70  O        -10.7730   17.6080   95.7640 O.2    52  PRO52      -0.2718
     71  CB       -12.5090   18.0240   92.9700 C.3    52  PRO52       0.0282
     72  CG       -13.8590   18.5080   92.5280 C.3    52  PRO52       0.0208
     73  CD       -13.8460   19.9230   93.0240 C.3    52  PRO52       0.0893
     74  N        -10.1410   19.3010   94.5050 N.am   53  PHE53      -0.1977
     75  CA        -8.7810   19.2210   95.0440 C.3    53  PHE53       0.1639
     76  C         -8.6760   19.6560   96.4900 C.2    53  PHE53       0.2290
     77  O         -7.6950   19.3200   97.1590 O.2    53  PHE53      -0.2864
     78  CB        -7.7600   19.9820   94.1980 C.3    53  PHE53       0.0560
     79  CG        -7.5310   19.3810   92.8480 C.ar   53  PHE53      -0.0200
     80  CD1       -7.2800   18.0220   92.7120 C.ar   53  PHE53      -0.0042
     81  CD2       -7.6510   20.1560   91.7060 C.ar   53  PHE53      -0.0042
     82  CE1       -7.1650   17.4440   91.4510 C.ar   53  PHE53      -0.0003
     83  CE2       -7.5360   19.5840   90.4430 C.ar   53  PHE53      -0.0003
     84  CZ        -7.2970   18.2270   90.3140 C.ar   53  PHE53      -0.0000
     85  N         -3.3140   13.0420   89.9440 N.3    69  LEU69      -0.1245
     86  CA        -3.0600   12.5400   88.5930 C.3    69  LEU69       0.1561
     87  C         -3.4130   13.5880   87.5230 C.2    69  LEU69       0.2260
     88  O         -4.4820   14.2150   87.5350 O.2    69  LEU69      -0.2867
     89  CB        -3.8270   11.2210   88.3560 C.3    69  LEU69       0.0270
     90  CG        -3.6690   10.3950   87.0670 C.3    69  LEU69       0.0019
     91  CD1       -4.2310    8.9900   87.1980 C.3    69  LEU69       0.0001
     92  CD2       -4.3790   11.0870   85.9780 C.3    69  LEU69       0.0001
     93  N         -4.9070   10.2900   78.9080 N.3    74  THR74      -0.1218
     94  CA        -6.3280   10.4230   78.6340 C.3    74  THR74       0.1862
     95  C         -6.6680   11.8590   78.2810 C.2    74  THR74       0.2287
     96  O         -7.8120   12.1880   77.9410 O.2    74  THR74      -0.2866
     97  CB        -7.1490    9.9780   79.8250 C.3    74  THR74       0.1770
     98  OG1       -6.7650   10.7450   80.9800 O.3    74  THR74      -0.2211
     99  CG2       -6.9250    8.4830   80.0620 C.3    74  THR74       0.0375
    100  N        -12.4200   13.6900   77.9450 N.3    79  ASP79      -0.1239
    101  CA       -13.5780   13.0340   78.5360 C.3    79  ASP79       0.1674
    102  C        -14.9720   13.5180   78.1200 C.2    79  ASP79       0.2266
    103  O        -15.5280   14.4220   78.7180 O.2    79  ASP79      -0.2867
    104  CB       -13.4280   13.0600   80.0740 C.3    79  ASP79       0.1410
    105  CG       -14.5650   12.3160   80.8230 C.2    79  ASP79       0.3668
    106  OD1      -15.4640   11.7030   80.2120 O.co2  79  ASP79      -0.2456
    107  OD2      -14.5490   12.3320   82.0660 O.co2  79  ASP79      -0.2456
    108  N        -20.1690   16.5600   78.0650 N.3    83  LYS83      -0.1245
    109  CA       -20.1670   17.0330   76.7010 C.3    83  LYS83       0.1561
    110  C        -21.2440   16.3680   75.8620 C.2    83  LYS83       0.2260
    111  O        -21.6550   15.2440   76.1500 O.2    83  LYS83      -0.2867
    112  CB       -18.7850   16.7900   76.0670 C.3    83  LYS83       0.0271
    113  CG       -17.5970   17.5250   76.7440 C.3    83  LYS83       0.0035
    114  CD       -17.1410   16.8420   78.0360 C.3    83  LYS83       0.0206
    115  CE       -16.0490   17.6120   78.7970 C.3    83  LYS83       0.1093
    116  NZ       -15.4750   16.8940   80.0150 N.3    83  LYS83      -0.1314
    117  N         -0.6680    9.7670   83.8710 N.3   123  ASN123     -0.1240
    118  CA        -0.9650    8.4830   83.2510 C.3   123  ASN123      0.1653
    119  C         -0.3480    8.1620   81.9130 C.2   123  ASN123      0.2266
    120  O         -0.4080    7.0290   81.4440 O.2   123  ASN123     -0.2867
    121  CB        -2.4600    8.1020   83.2920 C.3   123  ASN123      0.1155
    122  CG        -3.3480    9.0680   82.5790 C.2   123  ASN123      0.2627
    123  OD1       -2.8920   10.0590   82.0350 O.2   123  ASN123     -0.2716
    124  ND2       -4.6420    8.7910   82.5880 N.am  123  ASN123     -0.0877
    125  N        -12.8930    5.6560   76.1870 N.3   169  TYR169     -0.1241
    126  CA       -12.2510    6.4900   77.2180 C.3   169  TYR169      0.1605
    127  C        -12.3260    5.8980   78.6170 C.2   169  TYR169      0.2264
    128  O        -11.3230    5.8390   79.3160 O.2   169  TYR169     -0.2867
    129  CB       -12.8460    7.8930   77.2460 C.3   169  TYR169      0.0534
    130  CG       -12.1100    8.8100   78.1990 C.ar  169  TYR169     -0.0201
    131  CD1      -12.7070    9.2560   79.3730 C.ar  169  TYR169     -0.0009
    132  CD2      -10.8200    9.2740   77.9000 C.ar  169  TYR169     -0.0009
    133  CE1      -12.0450   10.1500   80.2180 C.ar  169  TYR169      0.0417
    134  CE2      -10.1480   10.1670   78.7400 C.ar  169  TYR169      0.0417
    135  CZ       -10.7700   10.5990   79.8870 C.ar  169  TYR169      0.1957
    136  OH       -10.1430   11.5060   80.6940 O.3   169  TYR169     -0.2866
    137  N         -9.5710    5.1310   81.8030 N.3   173  GLN173     -0.1245
    138  CA        -9.6850    5.6230   83.1650 C.3   173  GLN173      0.1566
    139  C         -9.8990    4.4720   84.1350 C.2   173  GLN173      0.2260
    140  O         -9.5870    4.6050   85.3170 O.2   173  GLN173     -0.2867
    141  CB       -10.8400    6.6140   83.2490 C.3   173  GLN173      0.0367
    142  CG       -10.9750    7.3490   84.5440 C.3   173  GLN173      0.0905
    143  CD       -11.7850    8.6350   84.4060 C.2   173  GLN173      0.2608
    144  OE1      -12.3660    9.1290   85.3720 O.2   173  GLN173     -0.2717
    145  NE2      -11.7570    9.2220   83.2250 N.am  173  GLN173     -0.0878
    146  N         -6.5900    3.0090   84.9060 N.3   176  ASP176     -0.1239
    147  CA        -5.8960    3.9190   85.8410 C.3   176  ASP176      0.1674
    148  C         -6.0970    3.5390   87.2810 C.2   176  ASP176      0.2266
    149  O         -5.1510    3.3650   88.0230 O.2   176  ASP176     -0.2867
    150  CB        -6.4650    5.3420   85.7650 C.3   176  ASP176      0.1410
    151  CG        -6.0060    6.1280   84.5730 C.2   176  ASP176      0.3668
    152  OD1       -6.8940    6.7680   83.9690 O.co2 176  ASP176     -0.2456
    153  OD2       -4.7830    6.1900   84.3000 O.co2 176  ASP176     -0.2456
    154  N        -11.7000    6.8340   95.0320 N.3   189  GLN189     -0.1245
    155  CA       -11.5300    7.7630   93.9320 C.3   189  GLN189      0.1566
    156  C        -12.5380    8.8870   94.1410 C.2   189  GLN189      0.2260
    157  O        -13.7620    8.6570   94.1780 O.2   189  GLN189     -0.2867
    158  CB       -11.7580    7.0870   92.5870 C.3   189  GLN189      0.0367
    159  CG       -12.0280    8.0810   91.4670 C.3   189  GLN189      0.0905
    160  CD       -11.7090    7.5430   90.1060 C.2   189  GLN189      0.2608
    161  OE1      -10.7470    7.9590   89.4960 O.2   189  GLN189     -0.2717
    162  NE2      -12.5100    6.6120   89.6240 N.am  189  GLN189     -0.0878
    163  N        -13.9640   12.6280   92.9840 N.3   191  GLY191     -0.1210
    164  CA       -14.1140   13.4490   91.7990 C.3   191  GLY191      0.1956
    165  C        -15.5280   13.9710   91.7340 C.2   191  GLY191      0.2612
    166  O        -16.4020   13.5040   92.4700 O.2   191  GLY191     -0.2717
    167  N        -15.7630   14.9030   90.8200 N.am  192  GLY192     -0.1956
    168  CA       -17.0810   15.5070   90.6790 C.3   192  GLY192      0.1869
    169  C        -18.1950   14.6600   90.1140 C.2   192  GLY192      0.2309
    170  O        -17.9480   13.6200   89.5380 O.2   192  GLY192     -0.2863
    171  N        -19.7560   14.6710   87.4620 N.3   194  ASP194     -0.1225
    172  CA       -19.4000   14.3060   86.0960 C.3   194  ASP194      0.1805
    173  C        -18.4780   13.1130   86.0180 C.2   194  ASP194      0.2597
    174  O        -18.1020   12.7210   84.9410 O.2   194  ASP194     -0.2718
    175  CB       -18.7240   15.4810   85.3950 C.3   194  ASP194      0.1424
    176  CG       -17.5540   16.0750   86.1950 C.2   194  ASP194      0.3668
    177  OD1      -16.4270   16.1620   85.6530 O.co2 194  ASP194     -0.2456
    178  OD2      -17.7590   16.5350   87.3430 O.co2 194  ASP194     -0.2456
    179  N        -18.0890   12.5480   87.1540 N.am  195  GLN195     -0.1979
    180  CA       -17.1950   11.3940   87.1570 C.3   195  GLN195      0.1601
    181  C        -17.7620   10.0950   87.6970 C.2   195  GLN195      0.2287
    182  O        -17.0680    9.0650   87.7560 O.2   195  GLN195     -0.2864
    183  CB       -15.9030   11.7250   87.8730 C.3   195  GLN195      0.0394
    184  CG       -14.7110   11.6690   86.9370 C.3   195  GLN195      0.0908
    185  CD       -14.9350   12.4390   85.6670 C.2   195  GLN195      0.2608
    186  OE1      -14.5000   12.0350   84.6060 O.2   195  GLN195     -0.2717
    187  NE2      -15.6130   13.5630   85.7770 N.am  195  GLN195     -0.0878
    188  N        -15.7460    6.6370   87.5050 N.3   199  ILE199     -0.1245
    189  CA       -15.3440    6.1010   88.8050 C.3   199  ILE199      0.1561
    190  C        -15.7940    4.6480   88.9190 C.2   199  ILE199      0.2260
    191  O        -14.9830    3.7330   88.9850 O.2   199  ILE199     -0.2867
    192  CB       -15.9170    6.9780   89.9660 C.3   199  ILE199      0.0252
    193  CG1      -14.9990    8.1620   90.2480 C.3   199  ILE199      0.0019
    194  CG2      -16.0040    6.1890   91.2410 C.3   199  ILE199      0.0019
    195  CD1      -14.5030    8.8670   89.0500 C.3   199  ILE199      0.0001
@<TRIPOS>BOND
     1   110   111    2
     2   110   109    1
     3   112   109    1
     4   112   113    1
     5   125   126    1
     6   109   108    1
     7   113   114    1
     8   126   129    1
     9   126   127    1
    10   129   130    1
    11    39    38    2
    12   132   130   ar
    13   132   134   ar
    14    96    95    2
    15   100   101    1
    16   114   115    1
    17   102   101    1
    18   102   103    2
    19    41    40    1
    20   130   131   ar
    21    95    94    1
    22   101   104    1
    23    38    37    1
    24    37    40    1
    25    37    36    1
    26   127   128    2
    27    94    93    1
    28    94    97    1
    29    40    42    1
    30   134   135   ar
    31   115   116    1
    32   131   133   ar
    33    97    99    1
    34    97    98    1
    35   135   133   ar
    36   135   136    1
    37   104   105    1
    38   106   105   ar
    39    32    33    1
    40    32    29    1
    41    34    33   ar
    42   105   107   ar
    43    33    35   ar
    44   120   119    2
    45    30    29    1
    46    30    31    2
    47   137   138    1
    48   119   118    1
    49    29    28    1
    50   123   122    2
    51   122   124   am
    52   122   121    1
    53   138   141    1
    54   138   139    1
    55    28    25   am
    56   145   143   am
    57   141   142    1
    58   118   121    1
    59   118   117    1
    60   152   151   ar
    61   139   140    2
    62   153   151   ar
    63    25    26    2
    64    25    24    1
    65   143   142    1
    66   143   144    2
    67   151   150    1
    68   186   185    2
    69   146   147    1
    70   174   173    2
    71    52    51   ar
    72    52    50   ar
    73    51    49   ar
    74   175   172    1
    75   175   176    1
    76    50    48   ar
    77    49    48   ar
    78    65    66   ar
    79    65    63   ar
    80    48    47    1
    81   177   176   ar
    82   185   187   am
    83   185   184    1
    84    24    27    1
    85    24    23    1
    86    66    64   ar
    87   150   147    1
    88   147   148    1
    89    47    44    1
    90    92    90    1
    91   173   172    1
    92   173   179   am
    93   172   171    1
    94   176   178   ar
    95    23    21   am
    96    63    62   ar
    97   184   183    1
    98    43    44    1
    99    64    62   ar
   100    90    91    1
   101    90    89    1
   102   179   180    1
   103   180   181    1
   104   180   183    1
   105    44    45    1
   106   148   149    2
   107   188   189    1
   108    87    88    2
   109    87    86    1
   110    21    22    2
   111    21    20    1
   112   181   182    2
   113    62    61    1
   114    89    86    1
   115    45    46    2
   116    20    19    1
   117    86    85    1
   118   189   190    1
   119   189   192    1
   120   190   191    2
   121    12    11    1
   122   195   193    1
   123    61    58    1
   124    54    53    1
   125    54    55    1
   126   161   160    2
   127   170   169    2
   128    57    55   am
   129    57    58    1
   130   162   160   am
   131    19    15   am
   132    55    56    2
   133   192   193    1
   134   192   194    1
   135    58    59    1
   136    10    11   ar
   137    10     8   ar
   138   160   159    1
   139   169   168    1
   140    11     9   ar
   141    84    83   ar
   142    84    82   ar
   143    83    81   ar
   144   168   167    1
   145    15    16    2
   146    15    14    1
   147   167   165   am
   148     8     6   ar
   149     9     7   ar
   150    59    60    2
   151    82    80   ar
   152   159   158    1
   153    18    17    1
   154    81    79   ar
   155   165   164    1
   156   165   166    2
   157   164   163    1
   158    14    17    1
   159    14    13    1
   160     6     7   ar
   161     6     5    1
   162    72    71    1
   163    72    73    1
   164   158   155    1
   165    80    79   ar
   166    79    78    1
   167    13     3   am
   168    71    68    1
   169    73    67    1
   170     5     2    1
   171     3     4    2
   172     3     2    1
   173   155   156    1
   174   155   154    1
   175   156   157    2
   176    78    75    1
   177    67    68    1
   178    68    69    1
   179    74    69   am
   180    74    75    1
   181     2     1    1
   182    69    70    2
   183    75    76    1
   184    76    77    2
