@<TRIPOS>MOLECULE
tmp/1jikA00.pdb
 210 197 0 0 0
SMALL
GASTEIGER

@<TRIPOS>ATOM
      1  N         27.0570    7.4850   93.4870 N.3    35  TYR35      -0.1227
      2  CA        27.8620    7.0020   92.3680 C.3    35  TYR35       0.1736
      3  C         28.4590    8.1140   91.5340 C.2    35  TYR35       0.2596
      4  O         27.9440    9.2530   91.5320 O.2    35  TYR35      -0.2718
      5  CB        27.0220    6.1010   91.4680 C.3    35  TYR35       0.0548
      6  CG        26.2960    6.7710   90.3230 C.ar   35  TYR35      -0.0200
      7  CD1       25.0470    7.3410   90.4950 C.ar   35  TYR35      -0.0009
      8  CD2       26.8380    6.7460   89.0360 C.ar   35  TYR35      -0.0009
      9  CE1       24.3430    7.8850   89.4110 C.ar   35  TYR35       0.0417
     10  CE2       26.1630    7.2600   87.9540 C.ar   35  TYR35       0.0417
     11  CZ        24.9060    7.8290   88.1410 C.ar   35  TYR35       0.1957
     12  OH        24.2170    8.2860   87.0300 O.3    35  TYR35      -0.2866
     13  N         29.5630    7.7670   90.8700 N.am   36  CYS36      -0.1956
     14  CA        30.2780    8.6410   89.9660 C.3    36  CYS36       0.1843
     15  C         30.6250    7.7170   88.8050 C.2    36  CYS36       0.2626
     16  O         30.8280    6.5210   89.0280 O.2    36  CYS36      -0.2714
     17  CB        31.5310    9.1920   90.6120 C.3    36  CYS36       0.0997
     18  SG        32.3160   10.5180   89.7050 S.3    36  CYS36      -0.0797
     19  N         30.6000    8.2480   87.5720 N.am   37  GLY37      -0.1940
     20  CA        30.8680    7.4550   86.3810 C.3    37  GLY37       0.2014
     21  C         32.0360    7.9080   85.5190 C.2    37  GLY37       0.2639
     22  O         32.4370    9.0780   85.5540 O.2    37  GLY37      -0.2714
     23  N         32.5400    6.9870   84.6950 N.am   38  ALA38      -0.1963
     24  CA        33.6670    7.2610   83.8110 C.3    38  ALA38       0.1728
     25  C         33.4080    6.6910   82.4260 C.2    38  ALA38       0.2616
     26  O         33.1120    5.5270   82.3210 O.2    38  ALA38      -0.2715
     27  CB        34.9440    6.6420   84.3940 C.3    38  ALA38       0.0334
     28  N         33.4830    7.4930   81.3650 N.am   39  ASP39      -0.1971
     29  CA        33.2840    6.9600   80.0030 C.3    39  ASP39       0.1709
     30  C         34.6460    6.4170   79.5950 C.2    39  ASP39       0.2293
     31  O         35.6460    7.0780   79.7510 O.2    39  ASP39      -0.2864
     32  CB        32.8200    8.0510   79.0270 C.3    39  ASP39       0.1436
     33  CG        31.3060    8.2320   78.9980 C.2    39  ASP39       0.3671
     34  OD1       30.5790    7.4400   79.5960 O.co2  39  ASP39      -0.2456
     35  OD2       30.8340    9.1630   78.3380 O.co2  39  ASP39      -0.2456
     36  N         37.1860    6.3950   77.4360 N.3    41  THR41      -0.1203
     37  CA        37.7650    7.0140   76.2700 C.3    41  THR41       0.1994
     38  C         39.2640    7.1890   76.4510 C.2    41  THR41       0.2617
     39  O         39.8520    8.1950   76.0540 O.2    41  THR41      -0.2717
     40  CB        37.1110    8.3350   76.0450 C.3    41  THR41       0.1784
     41  OG1       37.2260    9.1020   77.2490 O.3    41  THR41      -0.2211
     42  CG2       35.6300    8.1180   75.7120 C.3    41  THR41       0.0376
     43  N         39.8570    6.2210   77.1310 N.am   42  ALA42      -0.1979
     44  CA        41.2960    6.1770   77.3770 C.3    42  ALA42       0.1597
     45  C         41.4890    4.9010   78.1490 C.2    42  ALA42       0.2287
     46  O         40.5660    4.4370   78.7940 O.2    42  ALA42      -0.2864
     47  CB        41.7720    7.3560   78.1860 C.3    42  ALA42       0.0319
     48  N         43.4730    4.6210   80.4460 N.3    44  SER44      -0.1202
     49  CA        43.9830    5.0510   81.7390 C.3    44  SER44       0.2020
     50  C         43.4060    6.3700   82.2070 C.2    44  SER44       0.2618
     51  O         42.8810    7.1280   81.4120 O.2    44  SER44      -0.2717
     52  CB        45.4950    5.2120   81.6530 C.3    44  SER44       0.2103
     53  OG        46.0250    5.7640   82.8540 O.3    44  SER44      -0.2182
     54  N         43.4770    6.6450   83.5000 N.am   45  LEU45      -0.1979
     55  CA        42.9990    7.9310   83.9490 C.3    45  LEU45       0.1596
     56  C         44.2190    8.7140   84.3260 C.2    45  LEU45       0.2287
     57  O         45.2600    8.1210   84.5890 O.2    45  LEU45      -0.2864
     58  CB        42.1040    7.8820   85.1780 C.3    45  LEU45       0.0297
     59  CG        41.6010    6.6740   85.9220 C.3    45  LEU45       0.0022
     60  CD1       40.8290    7.1750   87.0990 C.3    45  LEU45       0.0001
     61  CD2       40.7090    5.8540   85.0250 C.3    45  LEU45       0.0001
     62  N         43.8170   14.2040   86.7360 N.3    48  GLY48      -0.1210
     63  CA        42.6930   15.1000   86.6490 C.3    48  GLY48       0.1956
     64  C         41.4110   14.3690   86.8840 C.2    48  GLY48       0.2611
     65  O         40.3910   14.9950   87.0250 O.2    48  GLY48      -0.2717
     66  N         41.4370   13.0500   86.9120 N.am   49  HIS49      -0.1975
     67  CA        40.2070   12.3110   87.1300 C.3    49  HIS49       0.1656
     68  C         40.0660   11.7860   88.5480 C.2    49  HIS49       0.2291
     69  O         38.9790   11.3290   88.9330 O.2    49  HIS49      -0.2864
     70  CB        40.1550   11.1040   86.2150 C.3    49  HIS49       0.0771
     71  CG        40.4020   11.4160   84.7750 C.ar   49  HIS49       0.0820
     72  ND1       39.9320   12.5600   84.1680 N.ar   49  HIS49      -0.2267
     73  CD2       41.0800   10.7400   83.8260 C.ar   49  HIS49       0.1154
     74  CE1       40.3140   12.5730   82.9040 C.ar   49  HIS49       0.1986
     75  NE2       41.0140   11.4780   82.6710 N.ar   49  HIS49      -0.2212
     76  N         37.4430   13.3100   92.1680 N.3    52  PRO52      -0.2102
     77  CA        36.0700   12.8620   92.3750 C.3    52  PRO52       0.1504
     78  C         35.9690   11.4650   92.9080 C.2    52  PRO52       0.2575
     79  O         35.0830   11.1820   93.6880 O.2    52  PRO52      -0.2718
     80  CB        35.4760   12.9410   90.9800 C.3    52  PRO52       0.0282
     81  CG        36.3860   13.8610   90.2540 C.3    52  PRO52       0.0208
     82  CD        37.6890   13.4410   90.7270 C.3    52  PRO52       0.0893
     83  N         36.8190   10.5720   92.4220 N.am   53  PHE53      -0.1977
     84  CA        36.8210    9.1720   92.8620 C.3    53  PHE53       0.1639
     85  C         37.3490    9.0360   94.2690 C.2    53  PHE53       0.2290
     86  O         36.7290    8.3630   95.0820 O.2    53  PHE53      -0.2864
     87  CB        37.5860    8.2520   91.8800 C.3    53  PHE53       0.0560
     88  CG        36.8870    8.0880   90.5410 C.ar   53  PHE53      -0.0200
     89  CD1       35.7590    7.2800   90.4290 C.ar   53  PHE53      -0.0042
     90  CD2       37.3130    8.8080   89.4260 C.ar   53  PHE53      -0.0042
     91  CE1       35.0590    7.2010   89.2230 C.ar   53  PHE53      -0.0003
     92  CE2       36.6290    8.7320   88.2400 C.ar   53  PHE53      -0.0003
     93  CZ        35.4910    7.9270   88.1330 C.ar   53  PHE53      -0.0000
     94  N         30.7480    3.7430   88.1850 N.3    69  LEU69      -0.1245
     95  CA        30.0430    3.4050   86.9450 C.3    69  LEU69       0.1561
     96  C         30.9290    3.5230   85.7170 C.2    69  LEU69       0.2260
     97  O         31.5480    4.5620   85.5170 O.2    69  LEU69      -0.2867
     98  CB        28.8520    4.3310   86.7490 C.3    69  LEU69       0.0270
     99  CG        28.0050    4.0120   85.5180 C.3    69  LEU69       0.0019
    100  CD1       26.5530    4.2040   85.9110 C.3    69  LEU69       0.0001
    101  CD2       28.3980    4.8720   84.3320 C.3    69  LEU69       0.0001
    102  N         30.9110    3.5170   81.6100 N.3    71  GLY71      -0.1225
    103  CA        30.0070    3.6870   80.5010 C.3    71  GLY71       0.1811
    104  C         30.3180    2.9410   79.2460 C.2    71  GLY71       0.2280
    105  O         30.9070    3.4970   78.3210 O.2    71  GLY71      -0.2866
    106  N         27.3870    4.5690   76.9910 N.3    74  THR74      -0.1218
    107  CA        27.5430    6.0030   76.7060 C.3    74  THR74       0.1862
    108  C         28.8540    6.3790   76.0390 C.2    74  THR74       0.2287
    109  O         28.9250    7.3520   75.3090 O.2    74  THR74      -0.2866
    110  CB        27.4280    6.8680   77.9850 C.3    74  THR74       0.1770
    111  OG1       28.2860    6.3320   79.0010 O.3    74  THR74      -0.2211
    112  CG2       25.9950    6.9350   78.4800 C.3    74  THR74       0.0375
    113  N         30.5790   12.4290   75.4380 N.3    79  ASP79      -0.1239
    114  CA        29.9300   13.4250   76.2770 C.3    79  ASP79       0.1674
    115  C         30.3830   14.7550   75.7790 C.2    79  ASP79       0.2266
    116  O         31.5670   15.0230   75.7100 O.2    79  ASP79      -0.2867
    117  CB        30.3200   13.2700   77.7690 C.3    79  ASP79       0.1410
    118  CG        29.5350   14.2360   78.7300 C.2    79  ASP79       0.3668
    119  OD1       28.5060   14.8070   78.3130 O.co2  79  ASP79      -0.2456
    120  OD2       29.9220   14.4080   79.9220 O.co2  79  ASP79      -0.2456
    121  N         32.8640   15.1140   69.3930 N.3    87  ARG87      -0.1245
    122  CA        33.6460   14.0390   69.9440 C.3    87  ARG87       0.1563
    123  C         33.4110   12.9580   68.8850 C.2    87  ARG87       0.2260
    124  O         32.2790   12.4650   68.7380 O.2    87  ARG87      -0.2867
    125  CB        33.0480   13.5780   71.2800 C.3    87  ARG87       0.0307
    126  CG        32.8980   14.6550   72.3440 C.3    87  ARG87       0.0489
    127  CD        34.2180   14.9280   73.0330 C.3    87  ARG87       0.2205
    128  NE        34.3700   14.2450   74.3230 N.pl3  87  ARG87      -0.0865
    129  CZ        34.7000   12.9650   74.4780 C.cat  87  ARG87       0.5346
    130  NH1       34.9110   12.1810   73.4260 N.pl3  87  ARG87       0.1354
    131  NH2       34.8550   12.4700   75.7010 N.pl3  87  ARG87       0.1354
    132  N         40.8950    1.0180   82.2440 N.3   102  ILE102     -0.1245
    133  CA        40.2570    1.7900   83.3210 C.3   102  ILE102      0.1561
    134  C         39.6720    0.9110   84.4350 C.2   102  ILE102      0.2260
    135  O         39.8540    1.2050   85.6250 O.2   102  ILE102     -0.2867
    136  CB        39.0730    2.6510   82.7700 C.3   102  ILE102      0.0252
    137  CG1       39.5860    3.9250   82.1600 C.3   102  ILE102      0.0019
    138  CG2       38.0650    3.0250   83.8730 C.3   102  ILE102      0.0019
    139  CD1       38.4570    4.8110   81.7670 C.3   102  ILE102      0.0001
    140  N         26.9560    0.6420   82.2050 N.3   123  ASN123     -0.1240
    141  CA        25.6330    1.0300   81.6680 C.3   123  ASN123      0.1653
    142  C         25.1860    0.3730   80.3580 C.2   123  ASN123      0.2266
    143  O         23.9940    0.3650   80.0320 O.2   123  ASN123     -0.2867
    144  CB        25.3950    2.5730   81.6640 C.3   123  ASN123      0.1155
    145  CG        26.4120    3.3390   80.8350 C.2   123  ASN123      0.2627
    146  OD1       27.1470    2.7510   80.0490 O.2   123  ASN123     -0.2716
    147  ND2       26.4570    4.6470   81.0080 N.am  123  ASN123     -0.0877
    148  N         22.9210   12.9490   74.5270 N.3   169  TYR169     -0.1241
    149  CA        23.6770   12.3370   75.6120 C.3   169  TYR169      0.1605
    150  C         23.1230   12.4180   77.0610 C.2   169  TYR169      0.2264
    151  O         23.0920   11.3950   77.7370 O.2   169  TYR169     -0.2867
    152  CB        25.1040   12.8680   75.5620 C.3   169  TYR169      0.0534
    153  CG        26.0350   12.2010   76.5390 C.ar  169  TYR169     -0.0201
    154  CD1       26.9490   11.2530   76.1120 C.ar  169  TYR169     -0.0009
    155  CD2       25.9740   12.4760   77.9000 C.ar  169  TYR169     -0.0009
    156  CE1       27.7800   10.5950   77.0120 C.ar  169  TYR169      0.0417
    157  CE2       26.8020   11.8300   78.8020 C.ar  169  TYR169      0.0417
    158  CZ        27.6980   10.8870   78.3490 C.ar  169  TYR169      0.1957
    159  OH        28.5560   10.2460   79.2050 O.3   169  TYR169     -0.2866
    160  N         22.5040    9.8650   80.3910 N.3   173  GLN173     -0.1245
    161  CA        23.0360    9.8600   81.7340 C.3   173  GLN173      0.1566
    162  C         21.9090   10.1340   82.7210 C.2   173  GLN173      0.2260
    163  O         22.1230   10.0660   83.9250 O.2   173  GLN173     -0.2867
    164  CB        24.1370   10.9020   81.8820 C.3   173  GLN173      0.0367
    165  CG        24.7810   10.9100   83.2370 C.3   173  GLN173      0.0905
    166  CD        25.9400   11.8830   83.3140 C.2   173  GLN173      0.2608
    167  OE1       26.5990   12.1800   82.3250 O.2   173  GLN173     -0.2717
    168  NE2       26.2050   12.3660   84.4910 N.am  173  GLN173     -0.0878
    169  N         20.6200    6.5410   83.5830 N.3   176  ASP176     -0.1239
    170  CA        21.5200    5.7800   84.4540 C.3   176  ASP176      0.1674
    171  C         21.1860    6.0530   85.9360 C.2   176  ASP176      0.2266
    172  O         21.0970    5.1430   86.7470 O.2   176  ASP176     -0.2867
    173  CB        22.9770    6.1460   84.1960 C.3   176  ASP176      0.1410
    174  CG        23.4660    5.6680   82.8520 C.2   176  ASP176      0.3668
    175  OD1       22.9120    4.6770   82.3460 O.co2 176  ASP176     -0.2456
    176  OD2       24.4290    6.2560   82.3050 O.co2 176  ASP176     -0.2456
    177  N         24.6540   11.6580   93.3020 N.3   189  GLN189     -0.1245
    178  CA        25.6500   11.4580   92.2420 C.3   189  GLN189      0.1566
    179  C         26.7190   12.5150   92.4320 C.2   189  GLN189      0.2260
    180  O         26.4160   13.6800   92.6740 O.2   189  GLN189     -0.2867
    181  CB        25.0670   11.6120   90.8380 C.3   189  GLN189      0.0367
    182  CG        26.1330   11.4720   89.7560 C.3   189  GLN189      0.0905
    183  CD        25.6010   11.4380   88.3000 C.2   189  GLN189      0.2608
    184  OE1       26.3890   11.3890   87.3500 O.2   189  GLN189     -0.2717
    185  NE2       24.2830   11.4630   88.1290 N.am  189  GLN189     -0.0878
    186  N         30.2490   14.2340   90.7940 N.3   191  GLY191     -0.1210
    187  CA        30.9460   14.3890   89.5310 C.3   191  GLY191      0.1956
    188  C         31.6780   15.7060   89.6130 C.2   191  GLY191      0.2612
    189  O         31.6270   16.3590   90.6420 O.2   191  GLY191     -0.2717
    190  N         32.4130   16.0780   88.5790 N.am  192  GLY192     -0.1956
    191  CA        33.0680   17.3760   88.5840 C.3   192  GLY192      0.1869
    192  C         32.0970   18.4400   88.0610 C.2   192  GLY192      0.2309
    193  O         30.9890   18.1220   87.6280 O.2   192  GLY192     -0.2863
    194  N         31.8760   20.0350   85.2730 N.3   194  ASP194     -0.1225
    195  CA        31.3890   19.7840   83.9270 C.3   194  ASP194      0.1805
    196  C         30.1370   18.9280   83.9430 C.2   194  ASP194      0.2597
    197  O         29.2980   19.0770   83.0630 O.2   194  ASP194     -0.2718
    198  CB        32.4480   19.0940   83.0670 C.3   194  ASP194      0.1424
    199  CG        33.1440   17.9640   83.7880 C.2   194  ASP194      0.3668
    200  OD1       33.6880   18.2060   84.8750 O.co2 194  ASP194     -0.2456
    201  OD2       33.1810   16.8390   83.2620 O.co2 194  ASP194     -0.2456
    202  N         29.9860   18.0500   84.9360 N.am  195  GLN195     -0.1979
    203  CA        28.8050   17.1990   84.9820 C.3   195  GLN195      0.1601
    204  C         27.5490   17.8140   85.5790 C.2   195  GLN195      0.2287
    205  O         26.4800   17.2310   85.5080 O.2   195  GLN195     -0.2864
    206  CB        29.1280   15.8770   85.6530 C.3   195  GLN195      0.0394
    207  CG        30.2280   15.1180   84.9620 C.3   195  GLN195      0.0908
    208  CD        29.9260   14.8600   83.5040 C.2   195  GLN195      0.2608
    209  OE1       29.0090   14.1090   83.1510 O.2   195  GLN195     -0.2717
    210  NE2       30.6990   15.4700   82.6450 N.am  195  GLN195     -0.0878
@<TRIPOS>BOND
     1   124   123    2
     2   123   122    1
     3   121   122    1
     4   122   125    1
     5   125   126    1
     6   126   127    1
     7   127   128    1
     8   130   129    1
     9   128   129    2
    10   129   131    1
    11   148   149    1
    12   109   108    2
    13   113   114    1
    14   152   149    1
    15   152   153    1
    16   149   150    1
    17   116   115    2
    18    42    40    1
    19   115   114    1
    20   108   107    1
    21    40    37    1
    22    40    41    1
    23    39    38    2
    24   154   153   ar
    25   154   156   ar
    26    37    38    1
    27    37    36    1
    28   114   117    1
    29    38    43   am
    30   153   155   ar
    31   107   106    1
    32   107   110    1
    33   156   158   ar
    34   150   151    2
    35    43    44    1
    36    44    45    1
    37    44    47    1
    38   117   118    1
    39   155   157   ar
    40   110   112    1
    41   110   111    1
    42    45    46    2
    43   119   118   ar
    44   105   104    2
    45    35    33   ar
    46   158   157   ar
    47   158   159    1
    48   118   120   ar
    49    33    32    1
    50    33    34   ar
    51    32    29    1
    52   104   103    1
    53    30    31    2
    54    30    29    1
    55    29    28    1
    56   143   142    2
    57   146   145    2
    58   142   141    1
    59   160   161    1
    60    48    49    1
    61   103   102    1
    62   145   147   am
    63   145   144    1
    64    28    25   am
    65    51    50    2
    66    52    49    1
    67    52    53    1
    68   144   141    1
    69   141   140    1
    70   161   164    1
    71   161   162    1
    72    49    50    1
    73   139   137    1
    74   164   165    1
    75   137   136    1
    76    50    54   am
    77   132   133    1
    78   176   174   ar
    79    26    25    2
    80   167   166    2
    81   175   174   ar
    82    25    24    1
    83   210   208   am
    84    75    74   ar
    85    75    73   ar
    86   162   163    2
    87   136   133    1
    88   136   138    1
    89   174   173    1
    90    74    72   ar
    91   197   196    2
    92   198   199    1
    93   198   195    1
    94   209   208    2
    95   165   166    1
    96   201   199   ar
    97   166   168   am
    98   133   134    1
    99    54    55    1
   100   208   207    1
   101   169   170    1
   102   199   200   ar
   103    24    27    1
   104    24    23    1
   105    73    71   ar
   106   195   196    1
   107   195   194    1
   108   196   202   am
   109    55    56    1
   110    55    58    1
   111    72    71   ar
   112   173   170    1
   113    56    57    2
   114   101    99    1
   115   134   135    2
   116   170   171    1
   117    23    21   am
   118    71    70    1
   119   202   203    1
   120   207   206    1
   121   203   204    1
   122   203   206    1
   123    61    59    1
   124    58    59    1
   125   205   204    2
   126    97    96    2
   127    99   100    1
   128    99    98    1
   129    21    22    2
   130    21    20    1
   131    96    95    1
   132    59    60    1
   133   171   172    2
   134    70    67    1
   135    20    19    1
   136    63    62    1
   137    63    64    1
   138    98    95    1
   139    64    66   am
   140    64    65    2
   141    66    67    1
   142    95    94    1
   143    12    11    1
   144    67    68    1
   145   184   183    2
   146    19    15   am
   147   193   192    2
   148    10    11   ar
   149    10     8   ar
   150   192   191    1
   151   185   183   am
   152    93    92   ar
   153    93    91   ar
   154    11     9   ar
   155    92    90   ar
   156   183   182    1
   157    68    69    2
   158   190   191    1
   159   190   188   am
   160    15    16    2
   161    15    14    1
   162     8     6   ar
   163    91    89   ar
   164     9     7   ar
   165    90    88   ar
   166   187   188    1
   167   187   186    1
   168   188   189    2
   169    18    17    1
   170   182   181    1
   171    14    17    1
   172    14    13    1
   173    81    82    1
   174    81    80    1
   175     6     7   ar
   176     6     5    1
   177    89    88   ar
   178    88    87    1
   179    82    76    1
   180   181   178    1
   181    13     3   am
   182    80    77    1
   183     5     2    1
   184     4     3    2
   185     3     2    1
   186    87    84    1
   187    76    77    1
   188   178   179    1
   189   178   177    1
   190     2     1    1
   191    77    78    1
   192    83    84    1
   193    83    78   am
   194   179   180    2
   195    84    85    1
   196    78    79    2
   197    85    86    2
