@<TRIPOS>MOLECULE
tmp/1jilA00.pdb
 187 177 0 0 0
SMALL
GASTEIGER

@<TRIPOS>ATOM
      1  N         26.6580    7.0310   92.8950 N.3    35  TYR35      -0.1227
      2  CA        27.4780    6.5920   91.7850 C.3    35  TYR35       0.1736
      3  C         28.1610    7.6910   91.0160 C.2    35  TYR35       0.2596
      4  O         27.7890    8.8690   91.0950 O.2    35  TYR35      -0.2718
      5  CB        26.6550    5.7090   90.8130 C.3    35  TYR35       0.0548
      6  CG        26.0090    6.4140   89.6080 C.ar   35  TYR35      -0.0200
      7  CD1       24.8090    7.1450   89.7210 C.ar   35  TYR35      -0.0009
      8  CD2       26.5670    6.2860   88.3380 C.ar   35  TYR35      -0.0009
      9  CE1       24.1860    7.7350   88.5490 C.ar   35  TYR35       0.0417
     10  CE2       25.9640    6.8430   87.1920 C.ar   35  TYR35       0.0417
     11  CZ        24.7860    7.5600   87.2990 C.ar   35  TYR35       0.1957
     12  OH        24.2320    8.0740   86.1350 O.3    35  TYR35      -0.2866
     13  N         29.2050    7.2700   90.3080 N.am   36  CYS36      -0.1956
     14  CA        29.9670    8.1200   89.4300 C.3    36  CYS36       0.1843
     15  C         30.2870    7.2480   88.2270 C.2    36  CYS36       0.2626
     16  O         30.5170    6.0400   88.3610 O.2    36  CYS36      -0.2714
     17  CB        31.2680    8.5760   90.0600 C.3    36  CYS36       0.0997
     18  SG        32.0530    9.8340   89.0310 S.3    36  CYS36      -0.0797
     19  N         30.2920    7.8570   87.0500 N.am   37  GLY37      -0.1940
     20  CA        30.5810    7.0990   85.8610 C.3    37  GLY37       0.2014
     21  C         31.7480    7.6320   85.0580 C.2    37  GLY37       0.2639
     22  O         32.1460    8.7820   85.2120 O.2    37  GLY37      -0.2714
     23  N         32.2850    6.7650   84.2090 N.am   38  ALA38      -0.1963
     24  CA        33.4030    7.0780   83.3270 C.3    38  ALA38       0.1728
     25  C         33.1810    6.3600   81.9920 C.2    38  ALA38       0.2616
     26  O         32.8610    5.1760   81.9640 O.2    38  ALA38      -0.2715
     27  CB        34.7210    6.6090   83.9580 C.3    38  ALA38       0.0334
     28  N         33.3330    7.0850   80.8910 N.am   39  ASP39      -0.1971
     29  CA        33.1780    6.5020   79.5670 C.3    39  ASP39       0.1709
     30  C         34.5430    6.0140   79.1220 C.2    39  ASP39       0.2293
     31  O         35.5460    6.6440   79.4210 O.2    39  ASP39      -0.2864
     32  CB        32.6490    7.5410   78.5630 C.3    39  ASP39       0.1436
     33  CG        31.1240    7.5350   78.4630 C.2    39  ASP39       0.3671
     34  OD1       30.4660    6.6380   79.0490 O.co2  39  ASP39      -0.2456
     35  OD2       30.5820    8.4240   77.7900 O.co2  39  ASP39      -0.2456
     36  N         36.7840    6.1390   76.6300 N.3    41  THR41      -0.1218
     37  CA        37.2560    6.8440   75.4500 C.3    41  THR41       0.1862
     38  C         38.7590    6.6930   75.2250 C.2    41  THR41       0.2287
     39  O         39.2990    7.2010   74.2560 O.2    41  THR41      -0.2866
     40  CB        36.8970    8.3310   75.5540 C.3    41  THR41       0.1770
     41  OG1       37.3510    8.8400   76.8170 O.3    41  THR41      -0.2211
     42  CG2       35.3910    8.5090   75.4730 C.3    41  THR41       0.0375
     43  N         43.0060    9.0750   83.6140 N.3    46  HIS46      -0.1241
     44  CA        44.1240    9.9730   83.8770 C.3    46  HIS46       0.1621
     45  C         43.8040   10.6690   85.1930 C.2    46  HIS46       0.2264
     46  O         42.7030   10.4850   85.7200 O.2    46  HIS46      -0.2867
     47  CB        44.3650   10.9700   82.7130 C.3    46  HIS46       0.0745
     48  CG        43.1790   11.8050   82.3460 C.ar   46  HIS46       0.0817
     49  ND1       42.3820   11.5290   81.2540 N.ar   46  HIS46      -0.2268
     50  CD2       42.6710   12.9280   82.9060 C.ar   46  HIS46       0.1154
     51  CE1       41.4350   12.4460   81.1570 C.ar   46  HIS46       0.1986
     52  NE2       41.5870   13.3060   82.1480 N.ar   46  HIS46      -0.2212
     53  N         42.7740   13.3680   85.9530 N.3    48  GLY48      -0.1210
     54  CA        41.5900   14.2060   85.9260 C.3    48  GLY48       0.1956
     55  C         40.3460   13.4250   86.3190 C.2    48  GLY48       0.2611
     56  O         39.3430   14.0180   86.6840 O.2    48  GLY48      -0.2717
     57  N         40.4070   12.0990   86.2430 N.am   49  HIS49      -0.1975
     58  CA        39.2790   11.2430   86.6040 C.3    49  HIS49       0.1656
     59  C         39.3380   10.8420   88.0610 C.2    49  HIS49       0.2291
     60  O         38.3700   10.3110   88.6050 O.2    49  HIS49      -0.2864
     61  CB        39.2920    9.9240   85.8300 C.3    49  HIS49       0.0771
     62  CG        39.0500   10.0610   84.3640 C.ar   49  HIS49       0.0820
     63  ND1       40.0730   10.0640   83.4400 N.ar   49  HIS49      -0.2267
     64  CD2       37.8980   10.1520   83.6560 C.ar   49  HIS49       0.1154
     65  CE1       39.5610   10.1500   82.2250 C.ar   49  HIS49       0.1986
     66  NE2       38.2440   10.2040   82.3270 N.ar   49  HIS49      -0.2212
     67  N         36.7620   12.6050   91.5540 N.3    52  PRO52      -0.2102
     68  CA        35.4170   12.1000   91.8680 C.3    52  PRO52       0.1504
     69  C         35.3990   10.6840   92.4560 C.2    52  PRO52       0.2575
     70  O         34.6060   10.3860   93.3390 O.2    52  PRO52      -0.2718
     71  CB        34.6800   12.1870   90.5240 C.3    52  PRO52       0.0282
     72  CG        35.3270   13.3790   89.8750 C.3    52  PRO52       0.0208
     73  CD        36.8080   13.1650   90.1870 C.3    52  PRO52       0.0893
     74  N         36.2840    9.8180   91.9790 N.am   53  PHE53      -0.1977
     75  CA        36.3200    8.4640   92.4850 C.3    53  PHE53       0.1639
     76  C         36.9130    8.3710   93.8660 C.2    53  PHE53       0.2290
     77  O         36.4240    7.5900   94.6930 O.2    53  PHE53      -0.2864
     78  CB        37.0380    7.5500   91.4940 C.3    53  PHE53       0.0560
     79  CG        36.2390    7.3190   90.2510 C.ar   53  PHE53      -0.0200
     80  CD1       36.7010    7.7350   89.0150 C.ar   53  PHE53      -0.0042
     81  CD2       34.9710    6.7570   90.3320 C.ar   53  PHE53      -0.0042
     82  CE1       35.8980    7.5970   87.8710 C.ar   53  PHE53      -0.0003
     83  CE2       34.1740    6.6190   89.2160 C.ar   53  PHE53      -0.0003
     84  CZ        34.6410    7.0430   87.9740 C.ar   53  PHE53      -0.0000
     85  N         30.4170    3.2710   87.5370 N.3    69  LEU69      -0.1245
     86  CA        29.8380    2.9010   86.2640 C.3    69  LEU69       0.1561
     87  C         30.8300    3.1120   85.1160 C.2    69  LEU69       0.2260
     88  O         31.5200    4.1540   85.0590 O.2    69  LEU69      -0.2867
     89  CB        28.5590    3.7130   86.0350 C.3    69  LEU69       0.0270
     90  CG        27.8150    3.5480   84.7140 C.3    69  LEU69       0.0019
     91  CD1       26.3520    3.9010   84.9130 C.3    69  LEU69       0.0001
     92  CD2       28.4840    4.4120   83.6470 C.3    69  LEU69       0.0001
     93  N         27.2430    4.1960   76.6600 N.3    74  THR74      -0.1218
     94  CA        27.3820    5.6150   76.3090 C.3    74  THR74       0.1862
     95  C         28.7130    5.8640   75.5950 C.2    74  THR74       0.2287
     96  O         28.8580    6.8070   74.8080 O.2    74  THR74      -0.2866
     97  CB        27.3290    6.5170   77.5570 C.3    74  THR74       0.1770
     98  OG1       28.0480    5.8830   78.6220 O.3    74  THR74      -0.2211
     99  CG2       25.8780    6.7670   77.9960 C.3    74  THR74       0.0375
    100  N         30.1490   11.7980   75.0210 N.3    79  ASP79      -0.1239
    101  CA        29.5570   12.9100   75.7850 C.3    79  ASP79       0.1674
    102  C         30.0100   14.2380   75.1890 C.2    79  ASP79       0.2266
    103  O         31.1900   14.4720   75.0560 O.2    79  ASP79      -0.2867
    104  CB        30.0260   12.8420   77.2470 C.3    79  ASP79       0.1410
    105  CG        29.2660   13.8180   78.1870 C.2    79  ASP79       0.3668
    106  OD1       28.5750   14.7590   77.7220 O.co2  79  ASP79      -0.2456
    107  OD2       29.3710   13.6330   79.4140 O.co2  79  ASP79      -0.2456
    108  N         32.8720   20.1140   75.6820 N.3    83  LYS83      -0.1245
    109  CA        33.6890   20.0730   74.4650 C.3    83  LYS83       0.1561
    110  C         33.1600   20.9760   73.3460 C.2    83  LYS83       0.2260
    111  O         32.0020   21.3870   73.3540 O.2    83  LYS83      -0.2867
    112  CB        33.7830   18.6380   73.9630 C.3    83  LYS83       0.0271
    113  CG        34.3050   17.6420   74.9890 C.3    83  LYS83       0.0035
    114  CD        34.5480   16.3000   74.2980 C.3    83  LYS83       0.0206
    115  CE        35.1270   15.2280   75.2320 C.3    83  LYS83       0.1093
    116  NZ        34.0900   14.3360   75.8820 N.3    83  LYS83      -0.1314
    117  N         26.9400    0.2470   81.7090 N.3   123  ASN123     -0.1240
    118  CA        25.6140    0.6050   81.2040 C.3   123  ASN123      0.1653
    119  C         25.1910   -0.0400   79.8830 C.2   123  ASN123      0.2266
    120  O         24.0570    0.0650   79.4860 O.2   123  ASN123     -0.2867
    121  CB        25.3860    2.1270   81.1850 C.3   123  ASN123      0.1155
    122  CG        26.3340    2.8600   80.2730 C.2   123  ASN123      0.2627
    123  OD1       26.9930    2.2560   79.4220 O.2   123  ASN123     -0.2716
    124  ND2       26.4030    4.1750   80.4280 N.am  123  ASN123     -0.0877
    125  N         22.6540   12.2920   74.1500 N.3   169  TYR169     -0.1241
    126  CA        23.5130   11.6650   75.1280 C.3   169  TYR169      0.1605
    127  C         23.0230   11.9590   76.5530 C.2   169  TYR169      0.2264
    128  O         22.9540   11.0600   77.4030 O.2   169  TYR169     -0.2867
    129  CB        24.9340   12.1810   74.9620 C.3   169  TYR169      0.0534
    130  CG        25.9130   11.5380   75.8980 C.ar  169  TYR169     -0.0201
    131  CD1       26.7250   10.4830   75.4750 C.ar  169  TYR169     -0.0009
    132  CD2       26.0280   11.9750   77.2150 C.ar  169  TYR169     -0.0009
    133  CE1       27.6420    9.8770   76.3590 C.ar  169  TYR169      0.0417
    134  CE2       26.9230   11.3820   78.1000 C.ar  169  TYR169      0.0417
    135  CZ        27.7260   10.3380   77.6710 C.ar  169  TYR169      0.1957
    136  OH        28.6160    9.7710   78.5620 O.3   169  TYR169     -0.2866
    137  N         22.5080    9.2260   79.9080 N.3   173  GLN173     -0.1245
    138  CA        23.0270    9.3410   81.2640 C.3   173  GLN173      0.1566
    139  C         21.8330    9.4220   82.2370 C.2   173  GLN173      0.2260
    140  O         21.8690    8.8520   83.3350 O.2   173  GLN173     -0.2867
    141  CB        23.9340   10.5690   81.4140 C.3   173  GLN173      0.0367
    142  CG        24.6180   10.6400   82.7880 C.3   173  GLN173      0.0905
    143  CD        25.9490   11.3380   82.7470 C.2   173  GLN173      0.2608
    144  OE1       26.5950   11.4030   81.6960 O.2   173  GLN173     -0.2717
    145  NE2       26.3900   11.8520   83.8970 N.am  173  GLN173     -0.0878
    146  N         20.4310    5.9580   82.9630 N.3   176  ASP176     -0.1239
    147  CA        21.3510    5.2620   83.8690 C.3   176  ASP176      0.1674
    148  C         21.0570    5.5760   85.3230 C.2   176  ASP176      0.2266
    149  O         21.0240    4.6740   86.1680 O.2   176  ASP176     -0.2867
    150  CB        22.8040    5.6760   83.6280 C.3   176  ASP176      0.1410
    151  CG        23.3950    5.0880   82.3560 C.2   176  ASP176      0.3668
    152  OD1       22.7720    4.2030   81.7190 O.co2 176  ASP176     -0.2456
    153  OD2       24.5150    5.5060   81.9980 O.co2 176  ASP176     -0.2456
    154  N         24.2030   11.1370   92.4570 N.3   189  GLN189     -0.1245
    155  CA        25.2010   10.9530   91.4150 C.3   189  GLN189      0.1566
    156  C         26.2370   12.0640   91.5850 C.2   189  GLN189      0.2260
    157  O         25.8960   13.2350   91.7560 O.2   189  GLN189     -0.2867
    158  CB        24.6220   11.0270   90.0050 C.3   189  GLN189      0.0367
    159  CG        25.7040   10.7680   88.9400 C.3   189  GLN189      0.0905
    160  CD        25.2160   10.9130   87.4770 C.2   189  GLN189      0.2608
    161  OE1       26.0210   10.9240   86.5560 O.2   189  GLN189     -0.2717
    162  NE2       23.9220   11.0120   87.2830 N.am  189  GLN189     -0.0878
    163  N         29.9650   13.8230   90.0950 N.3   191  GLY191     -0.1210
    164  CA        30.7240   14.0040   88.8660 C.3   191  GLY191      0.1956
    165  C         31.4810   15.3210   88.8760 C.2   191  GLY191      0.2612
    166  O         31.3200   16.1080   89.8010 O.2   191  GLY191     -0.2717
    167  N         32.3300   15.5430   87.8830 N.am  192  GLY192     -0.1956
    168  CA        33.0150   16.8180   87.7790 C.3   192  GLY192      0.1869
    169  C         31.9920   17.8740   87.3610 C.2   192  GLY192      0.2309
    170  O         30.8780   17.5420   86.9370 O.2   192  GLY192     -0.2863
    171  N         31.6060   19.6120   84.7700 N.3   194  ASP194     -0.1225
    172  CA        31.1150   19.5850   83.3810 C.3   194  ASP194      0.1805
    173  C         29.8770   18.6590   83.2570 C.2   194  ASP194      0.2597
    174  O         29.1460   18.7170   82.2790 O.2   194  ASP194     -0.2718
    175  CB        32.2290   19.0890   82.4590 C.3   194  ASP194      0.1424
    176  CG        32.7040   17.7040   82.8490 C.2   194  ASP194      0.3668
    177  OD1       32.2910   16.7180   82.2040 O.co2 194  ASP194     -0.2456
    178  OD2       33.4670   17.6010   83.8340 O.co2 194  ASP194     -0.2456
    179  N         29.6410   17.8360   84.2780 N.am  195  GLN195     -0.1979
    180  CA        28.5370   16.8850   84.3050 C.3   195  GLN195      0.1601
    181  C         27.2570   17.4080   84.9170 C.2   195  GLN195      0.2287
    182  O         26.2770   16.6920   84.9930 O.2   195  GLN195     -0.2864
    183  CB        28.9610   15.6360   85.0780 C.3   195  GLN195      0.0394
    184  CG        30.0350   14.8180   84.3940 C.3   195  GLN195      0.0908
    185  CD        29.5880   14.3300   83.0350 C.2   195  GLN195      0.2608
    186  OE1       28.6370   13.5640   82.9240 O.2   195  GLN195     -0.2717
    187  NE2       30.2550   14.8040   81.9870 N.am  195  GLN195     -0.0878
@<TRIPOS>BOND
     1   110   111    2
     2   110   109    1
     3   112   109    1
     4   112   113    1
     5   125   126    1
     6    39    38    2
     7   114   113    1
     8   114   115    1
     9   109   108    1
    10    96    95    2
    11   129   126    1
    12   129   130    1
    13   100   101    1
    14   103   102    2
    15   126   127    1
    16   102   101    1
    17    38    37    1
    18   115   116    1
    19    37    40    1
    20    37    36    1
    21    42    40    1
    22   131   130   ar
    23   131   133   ar
    24    40    41    1
    25    95    94    1
    26   101   104    1
    27   130   132   ar
    28    94    93    1
    29    94    97    1
    30   133   135   ar
    31   127   128    2
    32   132   134   ar
    33   104   105    1
    34    97    99    1
    35    97    98    1
    36   135   134   ar
    37   135   136    1
    38   106   105   ar
    39    35    33   ar
    40   105   107   ar
    41    33    32    1
    42    33    34   ar
    43    32    29    1
    44    30    31    2
    45    30    29    1
    46   123   122    2
    47   120   119    2
    48    29    28    1
    49   119   118    1
    50   137   138    1
    51   122   124   am
    52   122   121    1
    53    28    25   am
    54    51    49   ar
    55    51    52   ar
    56   121   118    1
    57   118   117    1
    58    49    48   ar
    59   138   141    1
    60   138   139    1
    61   141   142    1
    62   144   143    2
    63   152   151   ar
    64    26    25    2
    65   187   185   am
    66    25    24    1
    67   153   151   ar
    68    52    50   ar
    69   177   176   ar
    70    65    66   ar
    71    65    63   ar
    72   139   140    2
    73   174   173    2
    74    66    64   ar
    75    48    47    1
    76    48    50   ar
    77   151   150    1
    78   175   176    1
    79   175   172    1
    80    47    44    1
    81   143   142    1
    82   143   145   am
    83   176   178   ar
    84   186   185    2
    85   146   147    1
    86   185   184    1
    87   173   172    1
    88   173   179   am
    89    24    27    1
    90    24    23    1
    91   172   171    1
    92    63    62   ar
    93    43    44    1
    94   150   147    1
    95    92    90    1
    96    64    62   ar
    97   147   148    1
    98    44    45    1
    99    23    21   am
   100   179   180    1
   101   180   181    1
   102   180   183    1
   103    62    61    1
   104   184   183    1
   105    90    91    1
   106    90    89    1
   107   181   182    2
   108    21    22    2
   109    21    20    1
   110    88    87    2
   111    87    86    1
   112    45    46    2
   113   148   149    2
   114    61    58    1
   115    20    19    1
   116    54    53    1
   117    54    55    1
   118    89    86    1
   119    12    11    1
   120    57    55   am
   121    57    58    1
   122    86    85    1
   123    55    56    2
   124   161   160    2
   125    58    59    1
   126   170   169    2
   127    19    15   am
   128    10    11   ar
   129    10     8   ar
   130   162   160   am
   131    11     9   ar
   132   169   168    1
   133   160   159    1
   134   168   167    1
   135    82    84   ar
   136    82    80   ar
   137   167   165   am
   138    84    83   ar
   139    59    60    2
   140    15    16    2
   141    15    14    1
   142     8     6   ar
   143     9     7   ar
   144   164   165    1
   145   164   163    1
   146   165   166    2
   147   159   158    1
   148    80    79   ar
   149    18    17    1
   150    83    81   ar
   151    14    17    1
   152    14    13    1
   153     6     7   ar
   154     6     5    1
   155    72    73    1
   156    72    71    1
   157   158   155    1
   158    73    67    1
   159    79    81   ar
   160    79    78    1
   161    13     3   am
   162    71    68    1
   163     5     2    1
   164     3     4    2
   165     3     2    1
   166   155   156    1
   167   155   154    1
   168    78    75    1
   169    67    68    1
   170   156   157    2
   171     2     1    1
   172    68    69    1
   173    74    69   am
   174    74    75    1
   175    69    70    2
   176    75    76    1
   177    76    77    2
