@<TRIPOS>MOLECULE
tmp/1jimA00.pdb
 90 86 0 0 0
SMALL
GASTEIGER

@<TRIPOS>ATOM
      1  N         -0.7170   25.7200   32.4370 N.3    29  THR29      -0.1203
      2  CA        -1.7640   24.7730   32.8400 C.3    29  THR29       0.1994
      3  C         -2.5610   25.1510   34.1030 C.2    29  THR29       0.2618
      4  O         -3.7160   24.7690   34.1890 O.2    29  THR29      -0.2717
      5  CB        -1.2070   23.3170   32.8640 C.3    29  THR29       0.1784
      6  OG1       -2.3110   22.3930   32.9540 O.3    29  THR29      -0.2211
      7  CG2       -0.0990   23.0140   33.8530 C.3    29  THR29       0.0376
      8  N         -1.8940   25.7250   35.0920 N.am   30  CYS30      -0.1969
      9  CA        -2.2800   25.9700   36.4340 C.3    30  CYS30       0.1712
     10  C         -1.7410   27.2530   37.0150 C.2    30  CYS30       0.2296
     11  O         -0.6360   27.7000   36.6720 O.2    30  CYS30      -0.2864
     12  CB        -1.8870   24.7390   37.2300 C.3    30  CYS30       0.0983
     13  SG        -3.1220   23.3770   37.1020 S.3    30  CYS30      -0.0798
     14  N         -4.1170   17.9560   41.4810 N.3    45  HIS45      -0.1241
     15  CA        -4.6840   17.7090   40.1960 C.3    45  HIS45       0.1621
     16  C         -3.8010   18.1690   39.0280 C.2    45  HIS45       0.2264
     17  O         -3.8920   17.6480   37.9270 O.2    45  HIS45      -0.2867
     18  CB        -5.9970   18.5180   40.1730 C.3    45  HIS45       0.0745
     19  CG        -6.9170   18.3420   38.9970 C.ar   45  HIS45       0.0817
     20  ND1       -6.8970   17.2030   38.2480 N.ar   45  HIS45      -0.2268
     21  CD2       -7.9310   19.1390   38.5340 C.ar   45  HIS45       0.1154
     22  CE1       -7.8790   17.2830   37.2640 C.ar   45  HIS45       0.1986
     23  NE2       -8.5260   18.4910   37.4530 N.ar   45  HIS45      -0.2212
     24  N        -11.8590   13.9630   43.5580 N.3    88  VAL88      -0.1245
     25  CA       -11.4950   15.3720   43.9500 C.3    88  VAL88       0.1561
     26  C        -12.3310   15.8650   45.1210 C.2    88  VAL88       0.2260
     27  O        -11.8940   16.6210   46.0210 O.2    88  VAL88      -0.2867
     28  CB       -11.6230   16.3560   42.7500 C.3    88  VAL88       0.0252
     29  CG1      -10.9540   17.6830   43.0610 C.3    88  VAL88       0.0019
     30  CG2      -11.0440   15.7620   41.4580 C.3    88  VAL88       0.0019
     31  N        -13.7450   31.0930   39.4580 N.3   183  GLY183     -0.1210
     32  CA       -12.6030   30.4530   38.8010 C.3   183  GLY183      0.1956
     33  C        -13.0160   29.6200   37.6210 C.2   183  GLY183      0.2612
     34  O        -14.2020   29.3120   37.4420 O.2   183  GLY183     -0.2717
     35  N        -12.0990   29.2690   36.7700 N.am  184  CYS184     -0.1956
     36  CA       -12.4910   28.3900   35.6170 C.3   184  CYS184      0.1843
     37  C        -11.2610   27.6130   35.1520 C.2   184  CYS184      0.2625
     38  O        -10.2580   27.7150   35.8490 O.2   184  CYS184     -0.2714
     39  CB       -13.0010   29.3130   34.5070 C.3   184  CYS184      0.0997
     40  SG       -13.9940   28.5430   33.2700 S.3   184  CYS184     -0.0797
     41  N        -11.2820   26.6810   34.2860 N.am  185  GLN185     -0.1963
     42  CA       -10.1740   25.8140   34.1020 C.3   185  GLN185      0.1733
     43  C         -8.9490   26.5680   33.6880 C.2   185  GLN185      0.2616
     44  O         -9.1460   27.5670   32.9960 O.2   185  GLN185     -0.2715
     45  CB       -10.5590   25.0420   32.8140 C.3   185  GLN185      0.0408
     46  CG       -11.3610   23.7500   33.1730 C.3   185  GLN185      0.0908
     47  CD       -12.8180   24.0620   33.4520 C.2   185  GLN185      0.2608
     48  OE1      -13.3480   25.0560   32.9270 O.2   185  GLN185     -0.2717
     49  NE2      -13.4950   23.0330   33.8710 N.am  185  GLN185     -0.0878
     50  N         -7.7620   26.2090   34.1800 N.am  186  GLY186     -0.1955
     51  CA        -6.5680   27.0460   34.0400 C.3   186  GLY186      0.1869
     52  C         -6.3060   27.8590   35.3280 C.2   186  GLY186      0.2309
     53  O         -5.2220   28.3560   35.5820 O.2   186  GLY186     -0.2863
     54  N         -6.9810   26.3480   38.3440 N.3   188  SER188     -0.1217
     55  CA        -6.7120   25.2570   39.3170 C.3   188  SER188      0.1889
     56  C         -5.3260   25.3940   39.9260 C.2   188  SER188      0.2288
     57  O         -4.3970   25.8330   39.2580 O.2   188  SER188     -0.2866
     58  CB        -6.5170   23.9400   38.6020 C.3   188  SER188      0.2089
     59  OG        -7.6370   23.3950   37.8650 O.3   188  SER188     -0.2183
     60  N         -7.0650   26.7560   44.3910 N.3   206  THR206     -0.1203
     61  CA        -8.2270   26.4330   43.5440 C.3   206  THR206      0.1994
     62  C         -8.3120   24.9890   43.1060 C.2   206  THR206      0.2619
     63  O         -7.2780   24.3870   42.7340 O.2   206  THR206     -0.2717
     64  CB        -8.3290   27.3510   42.3260 C.3   206  THR206      0.1784
     65  OG1       -8.1780   28.7270   42.6390 O.3   206  THR206     -0.2211
     66  CG2       -9.4240   27.1740   41.2930 C.3   206  THR206      0.0376
     67  N         -9.4510   24.3860   43.3330 N.am  207  SER207     -0.1937
     68  CA        -9.6670   22.9280   43.1470 C.3   207  SER207      0.2055
     69  C        -10.7070   22.5830   42.0990 C.2   207  SER207      0.2643
     70  O        -10.4450   21.7120   41.2660 O.2   207  SER207     -0.2714
     71  CB        -9.9540   22.2100   44.4860 C.3   207  SER207      0.2130
     72  OG        -9.9540   20.7850   44.2270 O.3   207  SER207     -0.2179
     73  N        -11.9310   22.9830   42.2920 N.am  208  PHE208     -0.1959
     74  CA       -12.9480   22.6520   41.3450 C.3   208  PHE208      0.1771
     75  C        -14.0890   23.6260   41.2120 C.2   208  PHE208      0.2619
     76  O        -14.3500   24.4430   42.1210 O.2   208  PHE208     -0.2715
     77  CB       -13.5580   21.2660   41.6030 C.3   208  PHE208      0.0574
     78  CG       -14.2500   20.9870   42.8960 C.ar  208  PHE208     -0.0200
     79  CD1      -13.5030   20.5250   43.9600 C.ar  208  PHE208     -0.0042
     80  CD2      -15.6190   21.0550   42.9750 C.ar  208  PHE208     -0.0042
     81  CE1      -14.0820   20.1000   45.1240 C.ar  208  PHE208     -0.0003
     82  CE2      -16.1900   20.6750   44.1600 C.ar  208  PHE208     -0.0003
     83  CZ       -15.4370   20.1590   45.2150 C.ar  208  PHE208     -0.0000
     84  N        -14.7190   23.5840   40.0290 N.am  209  VAL209     -0.1977
     85  CA       -15.9910   24.2260   39.7730 C.3   209  VAL209      0.1596
     86  C        -16.9550   23.1450   39.3190 C.2   209  VAL209      0.2287
     87  O        -16.6040   21.9620   39.2750 O.2   209  VAL209     -0.2864
     88  CB       -15.8420   25.3690   38.7320 C.3   209  VAL209      0.0276
     89  CG1      -15.0230   26.6180   39.2250 C.3   209  VAL209      0.0022
     90  CG2      -15.3900   24.9260   37.3270 C.3   209  VAL209      0.0022
@<TRIPOS>BOND
     1     1     2    1
     2    45    46    1
     3    45    42    1
     4     2     5    1
     5     2     3    1
     6     5     6    1
     7     5     7    1
     8    48    47    2
     9    44    43    2
    10    46    47    1
    11    40    39    1
    12    47    49   am
    13    43    42    1
    14    43    50   am
    15    51    50    1
    16    51    52    1
    17    42    41    1
    18     3     4    2
    19     3     8   am
    20    41    37   am
    21    39    36    1
    22     8     9    1
    23    37    36    1
    24    37    38    2
    25    52    53    2
    26    36    35    1
    27     9    10    1
    28     9    12    1
    29    11    10    2
    30    35    33   am
    31    13    12    1
    32    22    23   ar
    33    22    20   ar
    34    90    88    1
    35    34    33    2
    36    23    21   ar
    37    33    32    1
    38    59    58    1
    39    17    16    2
    40    20    19   ar
    41    54    55    1
    42    21    19   ar
    43    58    55    1
    44    88    89    1
    45    88    85    1
    46    32    31    1
    47    19    18    1
    48    16    15    1
    49    57    56    2
    50    87    86    2
    51    55    56    1
    52    86    85    1
    53    85    84    1
    54    84    75   am
    55    18    15    1
    56    15    14    1
    57    75    74    1
    58    75    76    2
    59    70    69    2
    60    66    64    1
    61    74    77    1
    62    74    73    1
    63    30    28    1
    64    77    78    1
    65    69    73   am
    66    69    68    1
    67    64    65    1
    68    64    61    1
    69    63    62    2
    70    28    29    1
    71    28    25    1
    72    78    80   ar
    73    78    79   ar
    74    80    82   ar
    75    62    67   am
    76    62    61    1
    77    68    67    1
    78    68    71    1
    79    61    60    1
    80    24    25    1
    81    25    26    1
    82    79    81   ar
    83    82    83   ar
    84    72    71    1
    85    26    27    2
    86    81    83   ar
