@<TRIPOS>MOLECULE
tmp/1jinA01.pdb
 232 223 0 0 0
SMALL
GASTEIGER

@<TRIPOS>ATOM
      1  N        -25.1860   18.1160    8.2080 N.3    57  SER57      -0.1202
      2  CA       -24.4240   18.4490    9.4000 C.3    57  SER57       0.2020
      3  C        -23.5460   17.3190    9.9580 C.2    57  SER57       0.2619
      4  O        -23.8220   16.1390    9.7570 O.2    57  SER57      -0.2717
      5  CB       -25.4180   18.9380   10.4620 C.3    57  SER57       0.2103
      6  OG       -24.7880   19.3490   11.6560 O.3    57  SER57      -0.2182
      7  N        -22.4770   17.7070   10.6510 N.am   58  SER58      -0.1937
      8  CA       -21.5380   16.7720   11.2780 C.3    58  SER58       0.2055
      9  C        -21.6570   16.9090   12.8000 C.2    58  SER58       0.2643
     10  O        -20.9000   16.2880   13.5410 O.2    58  SER58      -0.2714
     11  CB       -20.0790   17.1080   10.8860 C.3    58  SER58       0.2130
     12  OG       -19.7840   16.8520    9.5210 O.3    58  SER58      -0.2179
     13  N        -22.5830   17.7480   13.2590 N.am   59  ASP59      -0.1957
     14  CA       -22.7650   17.9990   14.6840 C.3    59  ASP59       0.1825
     15  C        -23.8610   17.1370   15.2980 C.2    59  ASP59       0.2464
     16  O        -25.0420   17.3840   15.0730 O.2    59  ASP59      -0.2730
     17  CB       -23.0960   19.4720   14.8880 C.3    59  ASP59       0.1450
     18  CG       -22.9760   19.9060   16.3250 C.2    59  ASP59       0.3671
     19  OD1      -23.0740   21.1210   16.5770 O.co2  59  ASP59      -0.2456
     20  OD2      -22.7750   19.0510   17.2050 O.co2  59  ASP59      -0.2456
     21  N        -23.4840   16.1770   16.1600 N.am   60  PRO60      -0.2727
     22  CA       -24.4140   15.2620   16.8320 C.3    60  PRO60       0.1402
     23  C        -25.1010   15.8480   18.0700 C.2    60  PRO60       0.2269
     24  O        -26.0470   15.2580   18.6040 O.2    60  PRO60      -0.2865
     25  CB       -23.5050   14.1020   17.2140 C.3    60  PRO60       0.0296
     26  CG       -22.2600   14.8090   17.6160 C.3    60  PRO60       0.0237
     27  CD       -22.0920   15.8630   16.5400 C.3    60  PRO60       0.0939
     28  N        -26.5550    8.6150   16.5400 N.3    71  PHE71      -0.1241
     29  CA       -25.6690    8.2260   15.4520 C.3    71  PHE71       0.1605
     30  C        -24.8190    7.0430   15.8870 C.2    71  PHE71       0.2264
     31  O        -24.3660    6.9810   17.0260 O.2    71  PHE71      -0.2867
     32  CB       -24.8060    9.4140   15.0660 C.3    71  PHE71       0.0534
     33  CG       -25.5950   10.6820   14.8580 C.ar   71  PHE71      -0.0203
     34  CD1      -25.8500   11.5460   15.9310 C.ar   71  PHE71      -0.0042
     35  CD2      -26.0800   11.0190   13.5970 C.ar   71  PHE71      -0.0042
     36  CE1      -26.5810   12.7330   15.7440 C.ar   71  PHE71      -0.0003
     37  CE2      -26.8090   12.2030   13.4000 C.ar   71  PHE71      -0.0003
     38  CZ       -27.0590   13.0600   14.4750 C.ar   71  PHE71      -0.0000
     39  N        -21.6170    6.0120   15.6660 N.3    73  ALA73      -0.1231
     40  CA       -20.3250    6.1520   16.3300 C.3    73  ALA73       0.1694
     41  C        -20.4590    6.3480   17.8270 C.2    73  ALA73       0.2592
     42  O        -19.5270    6.0860   18.5870 O.2    73  ALA73      -0.2718
     43  CB       -19.5390    7.2930   15.7270 C.3    73  ALA73       0.0304
     44  N        -21.6320    6.7790   18.2560 N.am   74  TYR74      -0.1976
     45  CA       -21.8580    7.0260   19.6690 C.3    74  TYR74       0.1639
     46  C        -22.7480    5.9700   20.3200 C.2    74  TYR74       0.2290
     47  O        -23.4330    6.2340   21.3090 O.2    74  TYR74      -0.2864
     48  CB       -22.3900    8.4570   19.8670 C.3    74  TYR74       0.0560
     49  CG       -21.4740    9.4950   19.2500 C.ar   74  TYR74      -0.0198
     50  CD1      -21.8790   10.2530   18.1480 C.ar   74  TYR74      -0.0009
     51  CD2      -20.1610    9.6440   19.7060 C.ar   74  TYR74      -0.0009
     52  CE1      -21.0010   11.1200   17.5120 C.ar   74  TYR74       0.0417
     53  CE2      -19.2770   10.5070   19.0770 C.ar   74  TYR74       0.0417
     54  CZ       -19.6990   11.2380   17.9810 C.ar   74  TYR74       0.1957
     55  OH       -18.7980   12.0580   17.3420 O.3    74  TYR74      -0.2866
     56  N        -22.9720    5.3420   24.2780 N.3    77  PHE77      -0.1241
     57  CA       -22.3650    6.4560   24.9940 C.3    77  PHE77       0.1605
     58  C        -23.3600    7.2760   25.7800 C.2    77  PHE77       0.2264
     59  O        -24.3730    7.7240   25.2350 O.2    77  PHE77      -0.2867
     60  CB       -21.6870    7.4400   24.0350 C.3    77  PHE77       0.0534
     61  CG       -20.3800    6.9750   23.4800 C.ar   77  PHE77      -0.0203
     62  CD1      -20.1070    5.6270   23.3070 C.ar   77  PHE77      -0.0042
     63  CD2      -19.4370    7.9070   23.0640 C.ar   77  PHE77      -0.0042
     64  CE1      -18.9150    5.2080   22.7190 C.ar   77  PHE77      -0.0003
     65  CE2      -18.2420    7.4990   22.4730 C.ar   77  PHE77      -0.0003
     66  CZ       -17.9820    6.1470   22.3000 C.ar   77  PHE77      -0.0000
     67  N        -16.8570   13.4730   23.4470 N.3    85  PHE85      -0.1241
     68  CA       -16.3640   12.9200   22.1960 C.3    85  PHE85       0.1605
     69  C        -16.7690   13.8160   21.0380 C.2    85  PHE85       0.2264
     70  O        -16.2250   13.6960   19.9380 O.2    85  PHE85      -0.2867
     71  CB       -16.9820   11.5450   21.9400 C.3    85  PHE85       0.0534
     72  CG       -16.1860   10.4050   22.4830 C.ar   85  PHE85      -0.0203
     73  CD1      -15.3860    9.6430   21.6440 C.ar   85  PHE85      -0.0042
     74  CD2      -16.2310   10.0850   23.8350 C.ar   85  PHE85      -0.0042
     75  CE1      -14.6420    8.5810   22.1450 C.ar   85  PHE85      -0.0003
     76  CE2      -15.4930    9.0330   24.3350 C.ar   85  PHE85      -0.0003
     77  CZ       -14.6960    8.2800   23.4880 C.ar   85  PHE85      -0.0000
     78  N        -15.3900   18.9960   19.2020 N.3    88  ASN88      -0.1240
     79  CA       -14.1410   19.1940   18.4850 C.3    88  ASN88       0.1653
     80  C        -14.4430   19.4680   17.0210 C.2    88  ASN88       0.2266
     81  O        -15.5970   19.4170   16.6080 O.2    88  ASN88      -0.2867
     82  CB       -13.2580   17.9560   18.6200 C.3    88  ASN88       0.1155
     83  CG       -14.0130   16.6690   18.3760 C.2    88  ASN88       0.2627
     84  OD1      -14.3690   15.9610   19.3160 O.2    88  ASN88      -0.2716
     85  ND2      -14.2490   16.3470   17.1170 N.am   88  ASN88      -0.0877
     86  N        -14.2730   17.8390   13.9720 N.3    90  GLY90      -0.1210
     87  CA       -15.1010   16.9140   13.2170 C.3    90  GLY90       0.1956
     88  C        -16.5570   16.7790   13.6070 C.2    90  GLY90       0.2612
     89  O        -17.3350   16.1870   12.8610 O.2    90  GLY90      -0.2717
     90  N        -16.9120   17.3070   14.7770 N.am   91  THR91      -0.1952
     91  CA       -18.2730   17.2480   15.3020 C.3    91  THR91       0.1897
     92  C        -18.8830   18.6470   15.4230 C.2    91  THR91       0.2313
     93  O        -19.7380   18.8960   16.2780 O.2    91  THR91      -0.2863
     94  CB       -18.2720   16.5630   16.6850 C.3    91  THR91       0.1794
     95  OG1      -17.0980   16.9430   17.4060 O.3    91  THR91      -0.2208
     96  CG2      -18.2770   15.0710   16.5330 C.3    91  THR91       0.0378
     97  N        -14.0030    0.8820   21.3250 N.3   173  ILE173     -0.1231
     98  CA       -14.7710    1.9490   20.6840 C.3   173  ILE173      0.1692
     99  C        -14.8780    1.7420   19.1750 C.2   173  ILE173      0.2591
    100  O        -15.8470    2.1690   18.5530 O.2   173  ILE173     -0.2718
    101  CB       -14.1250    3.3360   20.9390 C.3   173  ILE173      0.0266
    102  CG1      -13.9560    3.5850   22.4340 C.3   173  ILE173      0.0019
    103  CG2      -14.9880    4.4410   20.3890 C.3   173  ILE173      0.0020
    104  CD1      -15.2460    3.5640   23.1900 C.3   173  ILE173      0.0001
    105  N        -13.8880    1.0780   18.5880 N.am  174  LEU174     -0.1980
    106  CA       -13.8800    0.8540   17.1450 C.3   174  LEU174      0.1596
    107  C        -14.9530   -0.0850   16.6320 C.2   174  LEU174      0.2287
    108  O        -15.2780   -0.0620   15.4480 O.2   174  LEU174     -0.2864
    109  CB       -12.5070    0.3800   16.6720 C.3   174  LEU174      0.0297
    110  CG       -11.3990    1.4290   16.7380 C.3   174  LEU174      0.0022
    111  CD1      -10.1690    0.8430   16.0970 C.3   174  LEU174      0.0001
    112  CD2      -11.8040    2.7190   16.0220 C.3   174  LEU174      0.0001
    113  N        -18.8570   -0.8990   25.3740 N.3   184  ARG184     -0.1245
    114  CA       -18.3830    0.1770   24.5240 C.3   184  ARG184      0.1563
    115  C        -18.5930    1.4650   25.2970 C.2   184  ARG184      0.2260
    116  O        -17.6900    2.3040   25.3760 O.2   184  ARG184     -0.2867
    117  CB       -19.1630    0.2080   23.2010 C.3   184  ARG184      0.0307
    118  CG       -18.5350    1.0800   22.1120 C.3   184  ARG184      0.0489
    119  CD       -19.3540    1.0810   20.8260 C.3   184  ARG184      0.2205
    120  NE       -18.6910    1.8150   19.7470 N.pl3 184  ARG184     -0.0865
    121  CZ       -18.8710    3.1070   19.4820 C.cat 184  ARG184      0.5346
    122  NH1      -19.7010    3.8310   20.2080 N.pl3 184  ARG184      0.1354
    123  NH2      -18.1950    3.6860   18.5000 N.pl3 184  ARG184      0.1354
    124  N         -9.8240   13.3810   20.9120 N.3   236  VAL236     -0.1245
    125  CA        -9.9250   13.0830   19.4960 C.3   236  VAL236      0.1561
    126  C         -8.5600   12.9470   18.7990 C.2   236  VAL236      0.2260
    127  O         -8.3730   12.0700   17.9540 O.2   236  VAL236     -0.2867
    128  CB       -10.8420   14.1410   18.8350 C.3   236  VAL236      0.0252
    129  CG1      -10.2750   14.6540   17.5440 C.3   236  VAL236      0.0019
    130  CG2      -12.2210   13.5610   18.6460 C.3   236  VAL236      0.0019
    131  N         -7.0430    9.6940   20.0800 N.3   239  LEU239     -0.1231
    132  CA        -7.7810    8.5870   19.4900 C.3   239  LEU239      0.1693
    133  C         -7.2800    8.3110   18.0680 C.2   239  LEU239      0.2591
    134  O         -6.9850    7.1760   17.7100 O.2   239  LEU239     -0.2718
    135  CB        -9.2610    8.9520   19.4580 C.3   239  LEU239      0.0284
    136  CG       -10.3240    7.8910   19.6870 C.3   239  LEU239      0.0019
    137  CD1      -10.1770    7.2710   21.0730 C.3   239  LEU239      0.0001
    138  CD2      -11.6680    8.5590   19.5520 C.3   239  LEU239      0.0001
    139  N         -7.1780    9.3630   17.2640 N.am  240  ALA240     -0.1980
    140  CA        -6.7130    9.2360   15.8900 C.3   240  ALA240      0.1597
    141  C         -5.2870    8.6820   15.8110 C.2   240  ALA240      0.2287
    142  O         -5.0080    7.7720   15.0250 O.2   240  ALA240     -0.2864
    143  CB        -6.8030   10.5670   15.2010 C.3   240  ALA240      0.0319
    144  N         -5.1470    4.8550   16.6050 N.3   243  GLU243     -0.1231
    145  CA        -5.7540    3.8970   15.6670 C.3   243  GLU243      0.1699
    146  C         -5.6470    4.0870   14.1530 C.2   243  GLU243      0.2592
    147  O         -5.5980    3.1060   13.4080 O.2   243  GLU243     -0.2718
    148  CB        -7.2400    3.7390   15.9940 C.3   243  GLU243      0.0402
    149  CG        -7.5520    3.2380   17.3830 C.3   243  GLU243      0.1161
    150  CD        -7.1040    1.8150   17.6150 C.2   243  GLU243      0.3649
    151  OE1       -6.8420    1.0840   16.6390 O.co2 243  GLU243     -0.2457
    152  OE2       -7.0210    1.4190   18.7920 O.co2 243  GLU243     -0.2457
    153  N         -5.6780    5.3300   13.6910 N.am  244  ALA244     -0.1980
    154  CA        -5.6280    5.6150   12.2630 C.3   244  ALA244      0.1597
    155  C         -4.4000    5.0750   11.5300 C.2   244  ALA244      0.2287
    156  O         -4.5240    4.3050   10.5780 O.2   244  ALA244     -0.2864
    157  CB        -5.7580    7.1020   12.0400 C.3   244  ALA244      0.0319
    158  N        -11.2300    4.8090    7.0740 N.3   287  PRO287     -0.2116
    159  CA       -12.5420    5.3430    7.4720 C.3   287  PRO287      0.1372
    160  C        -13.5690    4.9950    6.3910 C.2   287  PRO287      0.2244
    161  O        -13.8920    5.8110    5.5290 O.2   287  PRO287     -0.2868
    162  CB       -12.2780    6.8430    7.5510 C.3   287  PRO287      0.0268
    163  CG       -11.2680    7.0460    6.4650 C.3   287  PRO287      0.0207
    164  CD       -10.3300    5.9010    6.6580 C.3   287  PRO287      0.0892
    165  N        -18.3800    7.8500    6.8150 N.3   290  THR290     -0.1203
    166  CA       -18.3470    9.0430    7.6350 C.3   290  THR290      0.1994
    167  C        -19.8210    9.3960    7.7850 C.2   290  THR290      0.2619
    168  O        -20.6370    8.9810    6.9610 O.2   290  THR290     -0.2717
    169  CB       -17.5210   10.1630    7.0030 C.3   290  THR290      0.1784
    170  OG1      -17.8140   10.2690    5.6070 O.3   290  THR290     -0.2211
    171  CG2      -16.0450    9.8600    7.1830 C.3   290  THR290      0.0376
    172  N        -20.1970   10.1080    8.8350 N.am  291  THR291     -0.1938
    173  CA       -21.6080   10.3830    9.0310 C.3   291  THR291      0.2028
    174  C        -21.9990   11.8300    8.9470 C.2   291  THR291      0.2642
    175  O        -21.2400   12.7140    9.3290 O.2   291  THR291     -0.2714
    176  CB       -22.0780    9.8320   10.3930 C.3   291  THR291      0.1808
    177  OG1      -21.6720    8.4690   10.5120 O.3   291  THR291     -0.2208
    178  CG2      -23.5870    9.8910   10.5210 C.3   291  THR291      0.0379
    179  N        -23.2190   12.0490    8.4720 N.am  292  ARG292     -0.1963
    180  CA       -23.7980   13.3700    8.3450 C.3   292  ARG292      0.1729
    181  C        -25.2810   13.2700    8.7090 C.2   292  ARG292      0.2616
    182  O        -25.8850   12.1980    8.6190 O.2   292  ARG292     -0.2715
    183  CB       -23.6600   13.8870    6.9120 C.3   292  ARG292      0.0348
    184  CG       -22.2360   14.1610    6.4610 C.3   292  ARG292      0.0492
    185  CD       -21.6050   15.2140    7.3360 C.3   292  ARG292      0.2205
    186  NE       -20.2990   15.6290    6.8420 N.pl3 292  ARG292     -0.0865
    187  CZ       -19.1510   15.0510    7.1690 C.cat 292  ARG292      0.5346
    188  NH1      -19.1320   14.0180    8.0000 N.pl3 292  ARG292      0.1354
    189  NH2      -18.0180   15.5240    6.6740 N.pl3 292  ARG292      0.1354
    190  N        -25.8600   14.3930    9.1140 N.am  293  PHE293     -0.1974
    191  CA       -27.2600   14.4590    9.4750 C.3   293  PHE293      0.1639
    192  C        -27.9300   15.5170    8.6050 C.2   293  PHE293      0.2290
    193  O        -27.4760   16.6570    8.5600 O.2   293  PHE293     -0.2864
    194  CB       -27.3970   14.8310   10.9480 C.3   293  PHE293      0.0560
    195  CG       -28.8070   14.8360   11.4310 C.ar  293  PHE293     -0.0200
    196  CD1      -29.4320   16.0210   11.7600 C.ar  293  PHE293     -0.0042
    197  CD2      -29.5210   13.6560   11.5200 C.ar  293  PHE293     -0.0042
    198  CE1      -30.7510   16.0330   12.1690 C.ar  293  PHE293     -0.0003
    199  CE2      -30.8400   13.6620   11.9280 C.ar  293  PHE293     -0.0003
    200  CZ       -31.4540   14.8520   12.2530 C.ar  293  PHE293     -0.0000
    201  N        -13.9110   19.5540    6.4270 N.3   348  HIS348     -0.1241
    202  CA       -13.4420   18.6160    7.4360 C.3   348  HIS348      0.1621
    203  C        -12.2910   17.7400    6.9620 C.2   348  HIS348      0.2264
    204  O        -12.0710   16.6660    7.5190 O.2   348  HIS348     -0.2867
    205  CB       -14.5820   17.7390    7.9390 C.3   348  HIS348      0.0745
    206  CG       -15.6500   18.4950    8.6610 C.ar  348  HIS348      0.0817
    207  ND1      -15.5020   18.9460    9.9520 N.ar  348  HIS348     -0.2268
    208  CD2      -16.8870   18.8820    8.2700 C.ar  348  HIS348      0.1154
    209  CE1      -16.5980   19.5770   10.3290 C.ar  348  HIS348      0.1986
    210  NE2      -17.4550   19.5500    9.3240 N.ar  348  HIS348     -0.2212
    211  N         -9.1070   15.8230    6.6650 N.3   350  CYS350     -0.1235
    212  CA        -8.2550   15.3370    7.7460 C.3   350  CYS350      0.1677
    213  C         -7.0380   16.1940    8.0350 C.2   350  CYS350      0.2270
    214  O         -6.1390   16.2900    7.2060 O.2   350  CYS350     -0.2867
    215  CB        -7.7920   13.9150    7.4290 C.3   350  CYS350      0.0956
    216  SG        -6.9730   13.2900    8.9140 S.3   350  CYS350     -0.0801
    217  N        -16.2420    2.0710   10.9090 N.3   390  LEU390     -0.1231
    218  CA       -15.6850    3.3070   11.4380 C.3   390  LEU390      0.1693
    219  C        -14.2190    3.4430   11.0220 C.2   390  LEU390      0.2591
    220  O        -13.7980    4.4880   10.5350 O.2   390  LEU390     -0.2718
    221  CB       -15.8130    3.2880   12.9570 C.3   390  LEU390      0.0284
    222  CG       -15.6520    4.5580   13.7900 C.3   390  LEU390      0.0019
    223  CD1      -16.4880    5.6980   13.2170 C.3   390  LEU390      0.0001
    224  CD2      -16.0800    4.2390   15.2180 C.3   390  LEU390      0.0001
    225  N        -13.4540    2.3770   11.2310 N.am  391  LEU391     -0.1980
    226  CA       -12.0440    2.3140   10.8630 C.3   391  LEU391      0.1596
    227  C        -11.6980    0.8710   10.5220 C.2   391  LEU391      0.2287
    228  O        -11.5700    0.0290   11.4120 O.2   391  LEU391     -0.2864
    229  CB       -11.1350    2.7800   12.0000 C.3   391  LEU391      0.0297
    230  CG       -10.6520    4.2260   12.0370 C.3   391  LEU391      0.0022
    231  CD1       -9.6410    4.3400   13.1480 C.3   391  LEU391      0.0001
    232  CD2      -10.0030    4.6320   10.7350 C.3   391  LEU391      0.0001
@<TRIPOS>BOND
     1   161   160    2
     2   170   169    1
     3   160   159    1
     4   201   202    1
     5   184   183    1
     6   184   185    1
     7   163   164    1
     8   163   162    1
     9   164   158    1
    10   211   212    1
    11   189   187    1
    12   165   166    1
    13   186   187    2
    14   186   185    1
    15   183   180    1
    16   168   167    2
    17   203   202    1
    18   203   204    2
    19   169   171    1
    20   169   166    1
    21   158   159    1
    22   187   188    1
    23   214   213    2
    24   215   212    1
    25   215   216    1
    26   202   205    1
    27   159   162    1
    28   166   167    1
    29   212   213    1
    30   167   172   am
    31   205   206    1
    32     1     2    1
    33   208   206   ar
    34   208   210   ar
    35   180   179    1
    36   180   181    1
    37   179   174   am
    38   193   192    2
    39   192   191    1
    40   182   181    2
    41   206   207   ar
    42   181   190   am
    43   172   173    1
    44   174   173    1
    45   174   175    2
    46   173   176    1
    47   190   191    1
    48   210   209   ar
    49     2     3    1
    50     2     5    1
    51   191   194    1
    52    12    11    1
    53     4     3    2
    54   207   209   ar
    55     3     7   am
    56   176   177    1
    57   176   178    1
    58     5     6    1
    59   227   226    1
    60   227   228    2
    61   220   219    2
    62   156   155    2
    63     7     8    1
    64   232   230    1
    65   226   225    1
    66   226   229    1
    67    11     8    1
    68   217   218    1
    69   194   195    1
    70   219   225   am
    71   219   218    1
    72     8     9    1
    73   195   197   ar
    74   195   196   ar
    75   218   221    1
    76   197   199   ar
    77   155   154    1
    78   196   198   ar
    79   199   200   ar
    80   229   230    1
    81   230   231    1
    82   157   154    1
    83   198   200   ar
    84   154   153    1
    85     9    13   am
    86     9    10    2
    87    89    88    2
    88   221   222    1
    89   223   222    1
    90    87    88    1
    91    87    86    1
    92    13    14    1
    93    37    35   ar
    94    37    38   ar
    95   147   146    2
    96    35    33   ar
    97    88    90   am
    98   153   146   am
    99   222   224    1
   100   146   145    1
   101    38    36   ar
   102    14    17    1
   103    14    15    1
   104    90    91    1
   105    33    32    1
   106    33    34   ar
   107    17    18    1
   108   142   141    2
   109    32    29    1
   110    16    15    2
   111   143   140    1
   112    15    21   am
   113    91    92    1
   114    91    94    1
   115    92    93    2
   116   108   107    2
   117    29    30    1
   118    29    28    1
   119    39    40    1
   120   145   148    1
   121   145   144    1
   122    43    40    1
   123    36    34   ar
   124   141   140    1
   125    30    31    2
   126   140   139    1
   127   148   149    1
   128   112   110    1
   129   111   110    1
   130    21    27    1
   131    21    22    1
   132    18    19   ar
   133    18    20   ar
   134    40    41    1
   135    96    94    1
   136    27    26    1
   137    81    80    2
   138   107   106    1
   139   151   150   ar
   140   109   110    1
   141   109   106    1
   142    94    95    1
   143    22    25    1
   144    22    23    1
   145    80    79    1
   146    85    83   am
   147   106   105    1
   148    25    26    1
   149   139   133   am
   150    55    54    1
   151   149   150    1
   152    52    54   ar
   153    52    50   ar
   154   129   128    1
   155   150   152   ar
   156   134   133    2
   157    41    44   am
   158    41    42    2
   159   127   126    2
   160    54    53   ar
   161   133   132    1
   162    23    24    2
   163    50    49   ar
   164    44    45    1
   165    83    82    1
   166    83    84    2
   167    79    82    1
   168    79    78    1
   169   123   121    1
   170   100    99    2
   171   105    99   am
   172   130   128    1
   173   126   125    1
   174   128   125    1
   175    53    51   ar
   176    99    98    1
   177    49    51   ar
   178    49    48    1
   179   135   132    1
   180   135   136    1
   181   121   120    2
   182   121   122    1
   183   132   131    1
   184   125   124    1
   185   138   136    1
   186    45    48    1
   187    45    46    1
   188   136   137    1
   189   120   119    1
   190    70    69    2
   191    46    47    2
   192   103   101    1
   193    98   101    1
   194    98    97    1
   195   119   118    1
   196   101   102    1
   197    69    68    1
   198    73    75   ar
   199    73    72   ar
   200    71    68    1
   201    71    72    1
   202   118   117    1
   203    75    77   ar
   204    68    67    1
   205    66    65   ar
   206    66    64   ar
   207   102   104    1
   208    65    63   ar
   209    72    74   ar
   210    64    62   ar
   211    63    61   ar
   212   117   114    1
   213    62    61   ar
   214    61    60    1
   215    77    76   ar
   216    74    76   ar
   217    60    57    1
   218    56    57    1
   219   114   115    1
   220   114   113    1
   221    57    58    1
   222    59    58    2
   223   115   116    2
