@<TRIPOS>MOLECULE
tmp/1jipA01.pdb
 230 223 0 0 0
SMALL
GASTEIGER

@<TRIPOS>ATOM
      1  N        -25.1740   18.3500    8.2230 N.3    57  SER57      -0.1202
      2  CA       -24.4050   18.6940    9.4190 C.3    57  SER57       0.2020
      3  C        -23.5160   17.5950    9.9890 C.2    57  SER57       0.2619
      4  O        -23.7780   16.4090    9.7810 O.2    57  SER57      -0.2717
      5  CB       -25.3820   19.1700   10.4990 C.3    57  SER57       0.2103
      6  OG       -24.7430   19.3620   11.7450 O.3    57  SER57      -0.2182
      7  N        -22.4770   18.0040   10.7210 N.am   58  SER58      -0.1937
      8  CA       -21.5280   17.0760   11.3580 C.3    58  SER58       0.2055
      9  C        -21.6390   17.1380   12.8790 C.2    58  SER58       0.2643
     10  O        -20.9200   16.4340   13.5870 O.2    58  SER58      -0.2714
     11  CB       -20.0800   17.4380   10.9860 C.3    58  SER58       0.2130
     12  OG       -19.7790   17.1220    9.6440 O.3    58  SER58      -0.2179
     13  N        -22.5470   17.9760   13.3720 N.am   59  ASP59      -0.1957
     14  CA       -22.7110   18.2000   14.8050 C.3    59  ASP59       0.1825
     15  C        -23.8190   17.3690   15.4460 C.2    59  ASP59       0.2464
     16  O        -24.9980   17.6870   15.3130 O.2    59  ASP59      -0.2730
     17  CB       -22.9720   19.6910   15.0340 C.3    59  ASP59       0.1450
     18  CG       -22.9210   20.0790   16.4920 C.2    59  ASP59       0.3671
     19  OD1      -22.8720   21.2990   16.7710 O.co2  59  ASP59      -0.2456
     20  OD2      -22.9280   19.1780   17.3550 O.co2  59  ASP59      -0.2456
     21  N        -23.4420   16.3110   16.1820 N.am   60  PRO60      -0.2727
     22  CA       -24.3970   15.4220   16.8500 C.3    60  PRO60       0.1402
     23  C        -25.0740   16.0440   18.0650 C.2    60  PRO60       0.2269
     24  O        -26.0500   15.5000   18.5780 O.2    60  PRO60      -0.2865
     25  CB       -23.5310   14.2330   17.2400 C.3    60  PRO60       0.0296
     26  CG       -22.2420   14.9110   17.6310 C.3    60  PRO60       0.0237
     27  CD       -22.0540   15.9190   16.5030 C.3    60  PRO60       0.0939
     28  N        -26.5140    8.8090   16.5530 N.3    71  PHE71      -0.1228
     29  CA       -25.4920    8.4380   15.5770 C.3    71  PHE71       0.1721
     30  C        -24.6990    7.1880   15.9550 C.2    71  PHE71       0.2437
     31  O        -24.3770    6.9790   17.1240 O.2    71  PHE71      -0.2733
     32  CB       -24.5640    9.6300   15.3810 C.3    71  PHE71       0.0547
     33  CG       -25.3020   10.9020   15.0880 C.ar   71  PHE71      -0.0202
     34  CD1      -25.7410   11.1870   13.8010 C.ar   71  PHE71      -0.0042
     35  CD2      -25.6310   11.7800   16.1170 C.ar   71  PHE71      -0.0042
     36  CE1      -26.5010   12.3270   13.5410 C.ar   71  PHE71      -0.0003
     37  CE2      -26.3920   12.9220   15.8680 C.ar   71  PHE71      -0.0003
     38  CZ       -26.8280   13.1960   14.5770 C.ar   71  PHE71      -0.0000
     39  N        -24.3670    6.3460   14.9560 N.am   72  PRO72      -0.2718
     40  CA       -23.6170    5.0920   15.1050 C.3    72  PRO72       0.1535
     41  C        -22.3710    5.1800   15.9860 C.2    72  PRO72       0.2598
     42  O        -22.2240    4.4150   16.9370 O.2    72  PRO72      -0.2715
     43  CB       -23.2620    4.7250   13.6640 C.3    72  PRO72       0.0310
     44  CG       -24.4020    5.2840   12.8870 C.3    72  PRO72       0.0237
     45  CD       -24.6090    6.6340   13.5300 C.3    72  PRO72       0.0939
     46  N        -21.4800    6.1160   15.6590 N.am   73  ALA73      -0.1964
     47  CA       -20.2350    6.3070   16.3940 C.3    73  ALA73       0.1728
     48  C        -20.3740    6.5150   17.8970 C.2    73  ALA73       0.2616
     49  O        -19.4020    6.3550   18.6350 O.2    73  ALA73      -0.2715
     50  CB       -19.4590    7.4730   15.7920 C.3    73  ALA73       0.0334
     51  N        -21.5650    6.8710   18.3580 N.am   74  TYR74      -0.1974
     52  CA       -21.7710    7.1140   19.7830 C.3    74  TYR74       0.1639
     53  C        -22.7060    6.0950   20.4140 C.2    74  TYR74       0.2290
     54  O        -23.3850    6.3740   21.4040 O.2    74  TYR74      -0.2864
     55  CB       -22.2950    8.5370   19.9990 C.3    74  TYR74       0.0560
     56  CG       -21.3860    9.5630   19.3740 C.ar   74  TYR74      -0.0198
     57  CD1      -21.8620   10.4570   18.4130 C.ar   74  TYR74      -0.0009
     58  CD2      -20.0240    9.5880   19.6810 C.ar   74  TYR74      -0.0009
     59  CE1      -21.0000   11.3470   17.7660 C.ar   74  TYR74       0.0417
     60  CE2      -19.1560   10.4720   19.0370 C.ar   74  TYR74       0.0417
     61  CZ       -19.6530   11.3440   18.0810 C.ar   74  TYR74       0.1957
     62  OH       -18.7940   12.1950   17.4280 O.3    74  TYR74      -0.2866
     63  N        -23.0470    5.5550   24.4570 N.3    77  PHE77      -0.1241
     64  CA       -22.4370    6.6640   25.1860 C.3    77  PHE77       0.1605
     65  C        -23.4510    7.4740   25.9740 C.2    77  PHE77       0.2264
     66  O        -24.4590    7.9080   25.4180 O.2    77  PHE77      -0.2867
     67  CB       -21.7630    7.6420   24.2150 C.3    77  PHE77       0.0534
     68  CG       -20.4790    7.1480   23.6080 C.ar   77  PHE77      -0.0203
     69  CD1      -20.2220    5.7910   23.4590 C.ar   77  PHE77      -0.0042
     70  CD2      -19.5410    8.0630   23.1320 C.ar   77  PHE77      -0.0042
     71  CE1      -19.0460    5.3490   22.8420 C.ar   77  PHE77      -0.0003
     72  CE2      -18.3670    7.6330   22.5140 C.ar   77  PHE77      -0.0003
     73  CZ       -18.1190    6.2730   22.3680 C.ar   77  PHE77      -0.0000
     74  N        -16.8570   13.8420   23.5670 N.3    85  PHE85      -0.1241
     75  CA       -16.3860   13.2380   22.3280 C.3    85  PHE85       0.1605
     76  C        -16.7620   14.1170   21.1430 C.2    85  PHE85       0.2264
     77  O        -16.1330   14.0410   20.0880 O.2    85  PHE85      -0.2867
     78  CB       -17.0420   11.8680   22.1230 C.3    85  PHE85       0.0534
     79  CG       -16.2050   10.7030   22.5710 C.ar   85  PHE85      -0.0203
     80  CD1      -15.5450    9.9110   21.6370 C.ar   85  PHE85      -0.0042
     81  CD2      -16.0970   10.3770   23.9240 C.ar   85  PHE85      -0.0042
     82  CE1      -14.7860    8.8030   22.0390 C.ar   85  PHE85      -0.0003
     83  CE2      -15.3410    9.2740   24.3360 C.ar   85  PHE85      -0.0003
     84  CZ       -14.6840    8.4860   23.3870 C.ar   85  PHE85      -0.0000
     85  N        -15.4270   19.2160   19.2330 N.3    88  ASN88      -0.1240
     86  CA       -14.1800   19.4610   18.5170 C.3    88  ASN88       0.1653
     87  C        -14.4650   19.7490   17.0370 C.2    88  ASN88       0.2266
     88  O        -15.6130   19.6930   16.5980 O.2    88  ASN88      -0.2867
     89  CB       -13.2280   18.2670   18.6700 C.3    88  ASN88       0.1155
     90  CG       -13.9070   16.9380   18.4200 C.2    88  ASN88       0.2627
     91  OD1      -14.2230   16.1950   19.3570 O.2    88  ASN88      -0.2716
     92  ND2      -14.1410   16.6290   17.1530 N.am   88  ASN88      -0.0877
     93  N        -14.1790   18.1230   14.1810 N.3    90  GLY90      -0.1210
     94  CA       -14.9170   17.1290   13.4260 C.3    90  GLY90       0.1956
     95  C        -16.3980   17.0490   13.7220 C.2    90  GLY90       0.2612
     96  O        -17.1860   16.6500   12.8710 O.2    90  GLY90      -0.2717
     97  N        -16.7790   17.4450   14.9270 N.am   91  THR91      -0.1952
     98  CA       -18.1670   17.3790   15.3540 C.3    91  THR91       0.1897
     99  C        -18.8590   18.7380   15.4960 C.2    91  THR91       0.2313
    100  O        -19.6870   18.9320   16.3830 O.2    91  THR91      -0.2863
    101  CB       -18.2540   16.6370   16.6960 C.3    91  THR91       0.1794
    102  OG1      -17.2220   17.1230   17.5570 O.3    91  THR91      -0.2208
    103  CG2      -18.0720   15.1380   16.5000 C.3    91  THR91       0.0378
    104  N        -13.9750    0.8940   21.3090 N.3   173  ILE173     -0.1231
    105  CA       -14.7580    1.9340   20.6620 C.3   173  ILE173      0.1692
    106  C        -14.8450    1.7980   19.1350 C.2   173  ILE173      0.2591
    107  O        -15.7930    2.2880   18.5200 O.2   173  ILE173     -0.2718
    108  CB       -14.1980    3.3260   21.0380 C.3   173  ILE173      0.0266
    109  CG1      -14.2730    3.5050   22.5570 C.3   173  ILE173      0.0019
    110  CG2      -14.9920    4.4250   20.3530 C.3   173  ILE173      0.0020
    111  CD1      -13.7440    4.8370   23.0550 C.3   173  ILE173      0.0001
    112  N        -13.8750    1.1270   18.5190 N.am  174  LEU174     -0.1980
    113  CA       -13.8960    0.9780   17.0660 C.3   174  LEU174      0.1596
    114  C        -15.0010    0.0630   16.5550 C.2   174  LEU174      0.2287
    115  O        -15.4240    0.1850   15.4060 O.2   174  LEU174     -0.2864
    116  CB       -12.5460    0.4770   16.5460 C.3   174  LEU174      0.0297
    117  CG       -11.3740    1.4590   16.6650 C.3   174  LEU174      0.0022
    118  CD1      -10.2070    0.9280   15.8700 C.3   174  LEU174      0.0001
    119  CD2      -11.7760    2.8400   16.1390 C.3   174  LEU174      0.0001
    120  N        -18.8900   -0.6980   25.6030 N.3   184  ARG184     -0.1245
    121  CA       -18.4200    0.3990   24.7590 C.3   184  ARG184      0.1563
    122  C        -18.6190    1.7090   25.5050 C.2   184  ARG184      0.2260
    123  O        -17.7380    2.5750   25.5190 O.2   184  ARG184     -0.2867
    124  CB       -19.1970    0.4190   23.4360 C.3   184  ARG184      0.0307
    125  CG       -18.6670    1.4020   22.3940 C.3   184  ARG184      0.0489
    126  CD       -19.3720    1.2180   21.0650 C.3   184  ARG184      0.2205
    127  NE       -18.6900    1.9100   19.9690 N.pl3 184  ARG184     -0.0865
    128  CZ       -18.8560    3.1920   19.6520 C.cat 184  ARG184      0.5346
    129  NH1      -19.6900    3.9590   20.3380 N.pl3 184  ARG184      0.1354
    130  NH2      -18.1750    3.7090   18.6350 N.pl3 184  ARG184      0.1354
    131  N         -9.8580   13.5890   20.9570 N.3   236  VAL236     -0.1245
    132  CA        -9.9270   13.2410   19.5460 C.3   236  VAL236      0.1561
    133  C         -8.5620   13.0710   18.8660 C.2   236  VAL236      0.2260
    134  O         -8.4030   12.2280   17.9860 O.2   236  VAL236     -0.2867
    135  CB       -10.7730   14.3080   18.8020 C.3   236  VAL236      0.0252
    136  CG1      -10.2460   14.5400   17.4170 C.3   236  VAL236      0.0019
    137  CG2      -12.2190   13.8540   18.7560 C.3   236  VAL236      0.0019
    138  N         -6.9840    9.7920   20.2160 N.3   239  LEU239     -0.1231
    139  CA        -7.7310    8.6760   19.6450 C.3   239  LEU239      0.1693
    140  C         -7.2620    8.4180   18.2070 C.2   239  LEU239      0.2591
    141  O         -7.0220    7.2780   17.8230 O.2   239  LEU239     -0.2718
    142  CB        -9.2230    9.0080   19.6540 C.3   239  LEU239      0.0284
    143  CG       -10.2430    7.8910   19.8320 C.3   239  LEU239      0.0019
    144  CD1      -10.1250    7.3150   21.2480 C.3   239  LEU239      0.0001
    145  CD2      -11.6450    8.4540   19.6020 C.3   239  LEU239      0.0001
    146  N         -7.1440    9.4810   17.4120 N.am  240  ALA240     -0.1980
    147  CA        -6.6800    9.3580   16.0270 C.3   240  ALA240      0.1597
    148  C         -5.2450    8.8190   15.9770 C.2   240  ALA240      0.2287
    149  O         -4.9160    7.9770   15.1420 O.2   240  ALA240     -0.2864
    150  CB        -6.7470   10.7090   15.3270 C.3   240  ALA240      0.0319
    151  N         -5.2230    4.9390   16.6770 N.3   243  GLU243     -0.1231
    152  CA        -5.8380    3.9700   15.7600 C.3   243  GLU243      0.1699
    153  C         -5.7380    4.1620   14.2460 C.2   243  GLU243      0.2592
    154  O         -5.7700    3.1850   13.4930 O.2   243  GLU243     -0.2718
    155  CB        -7.3240    3.8180   16.1150 C.3   243  GLU243      0.0402
    156  CG        -7.5990    3.3790   17.5490 C.3   243  GLU243      0.1161
    157  CD        -7.1850    1.9390   17.8300 C.2   243  GLU243      0.3649
    158  OE1       -6.6850    1.2550   16.9140 O.co2 243  GLU243     -0.2457
    159  OE2       -7.3660    1.4890   18.9780 O.co2 243  GLU243     -0.2457
    160  N         -5.6140    5.3990   13.7870 N.am  244  SER244     -0.1952
    161  CA        -5.5890    5.6600   12.3490 C.3   244  SER244      0.1924
    162  C         -4.3820    5.1310   11.5740 C.2   244  SER244      0.2314
    163  O         -4.5390    4.4210   10.5740 O.2   244  SER244     -0.2863
    164  CB        -5.7480    7.1660   12.0990 C.3   244  SER244      0.2116
    165  OG        -4.6010    7.8700   12.5390 O.3   244  SER244     -0.2180
    166  N        -11.2110    4.8700    7.0910 N.3   287  PRO287     -0.2116
    167  CA       -12.5090    5.4210    7.5010 C.3   287  PRO287      0.1372
    168  C        -13.5380    5.0690    6.4350 C.2   287  PRO287      0.2244
    169  O        -13.9250    5.9050    5.6160 O.2   287  PRO287     -0.2868
    170  CB       -12.2310    6.9240    7.5960 C.3   287  PRO287      0.0268
    171  CG       -11.2390    7.1420    6.5040 C.3   287  PRO287      0.0207
    172  CD       -10.3150    5.9400    6.6060 C.3   287  PRO287      0.0892
    173  N        -18.2770    7.8700    6.8860 N.3   290  THR290     -0.1203
    174  CA       -18.2680    9.1120    7.6570 C.3   290  THR290      0.1994
    175  C        -19.7450    9.4530    7.7440 C.2   290  THR290      0.2619
    176  O        -20.5070    9.1250    6.8390 O.2   290  THR290     -0.2717
    177  CB       -17.4560   10.2500    6.9690 C.3   290  THR290      0.1784
    178  OG1      -17.8410   10.3650    5.5970 O.3   290  THR290     -0.2211
    179  CG2      -15.9560    9.9580    7.0570 C.3   290  THR290      0.0376
    180  N        -20.1530   10.1020    8.8230 N.am  291  THR291     -0.1938
    181  CA       -21.5620   10.3960    9.0480 C.3   291  THR291      0.2028
    182  C        -21.9650   11.8640    8.9550 C.2   291  THR291      0.2642
    183  O        -21.1930   12.7500    9.2990 O.2   291  THR291     -0.2714
    184  CB       -21.9750    9.8680   10.4450 C.3   291  THR291      0.1808
    185  OG1      -21.6200    8.4810   10.5540 O.3   291  THR291     -0.2208
    186  CG2      -23.4700   10.0100   10.6630 C.3   291  THR291      0.0379
    187  N        -23.1900   12.1000    8.4890 N.am  292  ARG292     -0.1963
    188  CA       -23.7600   13.4460    8.3840 C.3   292  ARG292      0.1729
    189  C        -25.2470   13.3820    8.7490 C.2   292  ARG292      0.2616
    190  O        -25.8710   12.3210    8.6510 O.2   292  ARG292     -0.2715
    191  CB       -23.6220   13.9930    6.9570 C.3   292  ARG292      0.0348
    192  CG       -22.1920   14.2600    6.5070 C.3   292  ARG292      0.0492
    193  CD       -21.5810   15.4100    7.2830 C.3   292  ARG292      0.2205
    194  NE       -20.2730   15.7970    6.7590 N.pl3 292  ARG292     -0.0865
    195  CZ       -19.1280   15.1870    7.0480 C.cat 292  ARG292      0.5346
    196  NH1      -19.1050   14.1420    7.8700 N.pl3 292  ARG292      0.1354
    197  NH2      -17.9990   15.6340    6.5210 N.pl3 292  ARG292      0.1354
    198  N        -25.8040   14.5190    9.1630 N.am  293  PHE293     -0.1974
    199  CA       -27.2150   14.6120    9.5150 C.3   293  PHE293      0.1639
    200  C        -27.8840   15.6860    8.6450 C.2   293  PHE293      0.2290
    201  O        -27.4340   16.8300    8.6040 O.2   293  PHE293     -0.2864
    202  CB       -27.3610   14.9700   10.9910 C.3   293  PHE293      0.0560
    203  CG       -28.7780   14.9480   11.4800 C.ar  293  PHE293     -0.0200
    204  CD1      -29.4380   16.1330   11.7880 C.ar  293  PHE293     -0.0042
    205  CD2      -29.4600   13.7400   11.6230 C.ar  293  PHE293     -0.0042
    206  CE1      -30.7540   16.1180   12.2300 C.ar  293  PHE293     -0.0003
    207  CE2      -30.7750   13.7140   12.0640 C.ar  293  PHE293     -0.0003
    208  CZ       -31.4240   14.9050   12.3690 C.ar  293  PHE293     -0.0000
    209  N         -9.2010   15.9720    6.6100 N.3   350  CYS350     -0.1292
    210  CA        -8.3180   15.4910    7.6710 C.3   350  CYS350      0.1363
    211  C         -7.0900   16.3080    7.3390 C.3   350  CYS350      0.2019
    212  O         -5.9360   16.6900    7.4030 O.3   350  CYS350     -0.2188
    213  CB        -7.7400   14.0800    7.4930 C.3   350  CYS350      0.0903
    214  SG        -6.8140   13.4870    8.9480 S.3   350  CYS350     -0.0805
    215  N        -16.3890    2.1390   11.0280 N.3   390  LEU390     -0.1231
    216  CA       -15.8200    3.3720   11.5550 C.3   390  LEU390      0.1693
    217  C        -14.3460    3.4890   11.1720 C.2   390  LEU390      0.2591
    218  O        -13.8950    4.5140   10.6470 O.2   390  LEU390     -0.2718
    219  CB       -15.9710    3.3780   13.0800 C.3   390  LEU390      0.0284
    220  CG       -15.5480    4.5960   13.9000 C.3   390  LEU390      0.0019
    221  CD1      -16.3790    5.8050   13.5180 C.3   390  LEU390      0.0001
    222  CD2      -15.7350    4.2810   15.3770 C.3   390  LEU390      0.0001
    223  N        -13.5960    2.4260   11.4280 N.am  391  LEU391     -0.1980
    224  CA       -12.1780    2.4050   11.1140 C.3   391  LEU391      0.1596
    225  C        -11.7960    0.9600   10.7990 C.2   391  LEU391      0.2287
    226  O        -11.6790    0.1210   11.7020 O.2   391  LEU391     -0.2864
    227  CB       -11.3950    2.9330   12.3160 C.3   391  LEU391      0.0297
    228  CG       -10.0660    3.6470   12.1020 C.3   391  LEU391      0.0022
    229  CD1       -9.0270    2.6450   11.6380 C.3   391  LEU391      0.0001
    230  CD2      -10.2480    4.7800   11.0900 C.3   391  LEU391      0.0001
@<TRIPOS>BOND
     1   178   177    1
     2   169   168    2
     3   168   167    1
     4   171   172    1
     5   171   170    1
     6   192   191    1
     7   192   193    1
     8   197   195    1
     9   172   166    1
    10   209   210    1
    11   194   195    2
    12   194   193    1
    13   176   175    2
    14   173   174    1
    15   191   188    1
    16   177   179    1
    17   177   174    1
    18   195   196    1
    19   166   167    1
    20   211   212    1
    21   211   210    1
    22   213   210    1
    23   213   214    1
    24   167   170    1
    25   174   175    1
    26   175   180   am
    27     1     2    1
    28   188   187    1
    29   188   189    1
    30   187   182   am
    31   201   200    2
    32   200   199    1
    33   190   189    2
    34   189   198   am
    35   180   181    1
    36   182   181    1
    37   182   183    2
    38   181   184    1
    39   198   199    1
    40     2     3    1
    41     2     5    1
    42   199   202    1
    43    12    11    1
    44     4     3    2
    45     3     7   am
    46   184   185    1
    47   184   186    1
    48     5     6    1
    49   163   162    2
    50   218   217    2
    51     7     8    1
    52   225   224    1
    53   225   226    2
    54    11     8    1
    55   202   203    1
    56   215   216    1
    57   230   228    1
    58   224   223    1
    59   224   227    1
    60   217   223   am
    61   217   216    1
    62     8     9    1
    63   203   205   ar
    64   203   204   ar
    65   216   219    1
    66   162   161    1
    67   205   207   ar
    68   229   228    1
    69   204   206   ar
    70   207   208   ar
    71   164   161    1
    72   164   165    1
    73   228   227    1
    74   206   208   ar
    75   161   160    1
    76    96    95    2
    77     9    13   am
    78     9    10    2
    79    44    45    1
    80    44    43    1
    81   219   220    1
    82    13    14    1
    83    94    95    1
    84    94    93    1
    85   154   153    2
    86   221   220    1
    87    45    39    1
    88    36    34   ar
    89    36    38   ar
    90    43    40    1
    91    95    97   am
    92   160   153   am
    93    34    33   ar
    94   220   222    1
    95   153   152    1
    96    38    37   ar
    97    14    17    1
    98    14    15    1
    99    97    98    1
   100    39    40    1
   101    39    30   am
   102    17    18    1
   103    33    32    1
   104    33    35   ar
   105    40    41    1
   106   149   148    2
   107    16    15    2
   108   150   147    1
   109    98    99    1
   110    98   101    1
   111    32    29    1
   112   115   114    2
   113    15    21   am
   114    99   100    2
   115    29    30    1
   116    29    28    1
   117    46    41   am
   118    46    47    1
   119   152   155    1
   120   152   151    1
   121    50    47    1
   122    37    35   ar
   123   118   117    1
   124    30    31    2
   125   148   147    1
   126    41    42    2
   127   147   146    1
   128   155   156    1
   129   119   117    1
   130    21    27    1
   131    21    22    1
   132    47    48    1
   133    18    19   ar
   134    18    20   ar
   135   103   101    1
   136    27    26    1
   137   116   117    1
   138   116   113    1
   139   114   113    1
   140    88    87    2
   141   101   102    1
   142    22    25    1
   143    22    23    1
   144   158   157   ar
   145    87    86    1
   146   113   112    1
   147    92    90   am
   148    25    26    1
   149   146   140   am
   150   136   135    1
   151    62    61    1
   152   156   157    1
   153    59    61   ar
   154    59    57   ar
   155   141   140    2
   156   157   159   ar
   157    48    51   am
   158    48    49    2
   159   134   133    2
   160    23    24    2
   161    61    60   ar
   162   140   139    1
   163    51    52    1
   164    57    56   ar
   165    90    89    1
   166    90    91    2
   167    86    89    1
   168    86    85    1
   169   112   106   am
   170   107   106    2
   171   130   128    1
   172   137   135    1
   173   135   132    1
   174   133   132    1
   175    60    58   ar
   176   106   105    1
   177    56    58   ar
   178    56    55    1
   179   132   131    1
   180   145   143    1
   181   139   142    1
   182   139   138    1
   183   128   127    2
   184   128   129    1
   185   142   143    1
   186    52    55    1
   187    52    53    1
   188   143   144    1
   189   127   126    1
   190    77    76    2
   191   110   108    1
   192    53    54    2
   193   105   108    1
   194   105   104    1
   195   108   109    1
   196   126   125    1
   197    76    75    1
   198    80    82   ar
   199    80    79   ar
   200    82    84   ar
   201    78    75    1
   202    78    79    1
   203    75    74    1
   204    73    72   ar
   205    73    71   ar
   206   125   124    1
   207    72    70   ar
   208   109   111    1
   209    79    81   ar
   210    71    69   ar
   211    70    68   ar
   212    84    83   ar
   213   124   121    1
   214    69    68   ar
   215    68    67    1
   216    81    83   ar
   217    67    64    1
   218    63    64    1
   219   121   122    1
   220   121   120    1
   221    64    65    1
   222    66    65    2
   223   122   123    2
