@<TRIPOS>MOLECULE
tmp/1jizB00.pdb
 142 142 0 0 0
SMALL
GASTEIGER

@<TRIPOS>ATOM
      1  N         31.1000   50.1500   53.1410 N.3    81  GLY81      -0.1210
      2  CA        31.2580   48.9840   52.2920 C.3    81  GLY81       0.1956
      3  C         32.6030   48.9160   51.5970 C.2    81  GLY81       0.2612
      4  O         33.6540   48.9390   52.2440 O.2    81  GLY81      -0.2717
      5  N         32.5700   48.8330   50.2710 N.am   82  ILE82      -0.1965
      6  CA        33.7900   48.7520   49.4730 C.3    82  ILE82       0.1727
      7  C         34.6710   49.9950   49.6180 C.2    82  ILE82       0.2616
      8  O         34.2160   51.1230   49.4130 O.2    82  ILE82      -0.2715
      9  CB        33.4580   48.5550   47.9840 C.3    82  ILE82       0.0290
     10  CG1       32.5070   47.3620   47.8270 C.3    82  ILE82       0.0022
     11  CG2       34.7540   48.3520   47.1870 C.3    82  ILE82       0.0023
     12  CD1       31.9610   47.1800   46.4260 C.3    82  ILE82       0.0001
     13  N         35.9350   49.7780   49.9680 N.am   83  LEU83      -0.1963
     14  CA        36.8810   50.8740   50.1420 C.3    83  LEU83       0.1728
     15  C         37.6920   51.1080   48.8670 C.2    83  LEU83       0.2616
     16  O         37.9030   52.2480   48.4460 O.2    83  LEU83      -0.2715
     17  CB        37.8250   50.5620   51.3020 C.3    83  LEU83       0.0311
     18  CG        37.1470   50.2390   52.6350 C.3    83  LEU83       0.0022
     19  CD1       38.2050   49.9150   53.6650 C.3    83  LEU83       0.0001
     20  CD2       36.2900   51.4140   53.0920 C.3    83  LEU83       0.0001
     21  N         38.1420   50.0160   48.2580 N.am   84  ALA84      -0.1963
     22  CA        38.9310   50.0850   47.0410 C.3    84  ALA84       0.1728
     23  C         39.0010   48.7020   46.4230 C.2    84  ALA84       0.2616
     24  O         38.5770   47.7160   47.0340 O.2    84  ALA84      -0.2715
     25  CB        40.3320   50.5770   47.3620 C.3    84  ALA84       0.0334
     26  N         39.5150   48.6410   45.1990 N.am   85  HIS85      -0.1973
     27  CA        39.6900   47.3780   44.4940 C.3    85  HIS85       0.1656
     28  C         40.7800   47.5770   43.4560 C.2    85  HIS85       0.2291
     29  O         40.9980   48.6880   42.9840 O.2    85  HIS85      -0.2864
     30  CB        38.3700   46.9060   43.8610 C.3    85  HIS85       0.0771
     31  CG        37.8130   47.8260   42.8180 C.ar   85  HIS85       0.0820
     32  ND1       36.4590   47.9550   42.6000 N.ar   85  HIS85      -0.2267
     33  CD2       38.4160   48.6180   41.9010 C.ar   85  HIS85       0.1154
     34  CE1       36.2520   48.7880   41.5950 C.ar   85  HIS85       0.1986
     35  NE2       37.4240   49.2030   41.1520 N.ar   85  HIS85      -0.2212
     36  N         47.5050   52.2460   54.3770 N.3   116  LEU116     -0.1231
     37  CA        47.1320   50.8630   54.6440 C.3   116  LEU116      0.1693
     38  C         46.4050   50.2140   53.4700 C.2   116  LEU116      0.2592
     39  O         46.8110   49.1560   52.9720 O.2   116  LEU116     -0.2718
     40  CB        46.2370   50.7960   55.8780 C.3   116  LEU116      0.0284
     41  CG        46.9600   50.5250   57.1910 C.3   116  LEU116      0.0019
     42  CD1       45.9660   50.6420   58.3410 C.3   116  LEU116      0.0001
     43  CD2       47.5890   49.1230   57.1460 C.3   116  LEU116      0.0001
     44  N         45.3260   50.8620   53.0420 N.am  117  THR117     -0.1953
     45  CA        44.5080   50.3780   51.9440 C.3   117  THR117      0.1897
     46  C         45.3570   50.1190   50.7060 C.2   117  THR117      0.2313
     47  O         45.2500   49.0620   50.0750 O.2   117  THR117     -0.2863
     48  CB        43.4210   51.4030   51.5930 C.3   117  THR117      0.1794
     49  OG1       42.7720   51.8380   52.7930 O.3   117  THR117     -0.2208
     50  CG2       42.3920   50.7840   50.6670 C.3   117  THR117      0.0378
     51  N         47.4960   46.9410   50.7260 N.3   120  HIS120     -0.1226
     52  CA        46.6140   45.8200   50.4330 C.3   120  HIS120      0.1752
     53  C         46.2840   45.7700   48.9350 C.2   120  HIS120      0.2595
     54  O         46.3740   44.7120   48.3030 O.2   120  HIS120     -0.2718
     55  CB        45.3210   45.9590   51.2460 C.3   120  HIS120      0.0759
     56  CG        44.3090   44.8910   50.9660 C.ar  120  HIS120      0.0818
     57  ND1       44.2850   43.6900   51.6440 N.ar  120  HIS120     -0.2268
     58  CD2       43.2860   44.8430   50.0770 C.ar  120  HIS120      0.1154
     59  CE1       43.2900   42.9490   51.1860 C.ar  120  HIS120      0.1986
     60  NE2       42.6680   43.6250   50.2350 N.ar  120  HIS120     -0.2212
     61  N         45.9020   46.9150   48.3720 N.am  121  GLU121     -0.1979
     62  CA        45.5580   46.9890   46.9570 C.3   121  GLU121      0.1602
     63  C         46.7180   46.6310   46.0360 C.2   121  GLU121      0.2287
     64  O         46.5490   45.8550   45.0920 O.2   121  GLU121     -0.2864
     65  CB        45.0380   48.3840   46.6140 C.3   121  GLU121      0.0415
     66  CG        43.6820   48.6860   47.2350 C.3   121  GLU121      0.1163
     67  CD        42.6980   47.5530   47.0150 C.2   121  GLU121      0.3649
     68  OE1       42.4010   47.2570   45.8430 O.co2 121  GLU121     -0.2457
     69  OE2       42.2320   46.9520   48.0080 O.co2 121  GLU121     -0.2457
     70  N         47.2410   43.1670   45.3120 N.3   124  HIS124     -0.1241
     71  CA        46.4310   42.6100   44.2340 C.3   124  HIS124      0.1621
     72  C         47.0860   42.9550   42.8980 C.2   124  HIS124      0.2264
     73  O         47.2010   42.1050   42.0160 O.2   124  HIS124     -0.2867
     74  CB        45.0050   43.1760   44.2670 C.3   124  HIS124      0.0745
     75  CG        44.1700   42.6660   45.4030 C.ar  124  HIS124      0.0817
     76  ND1       44.0680   41.3250   45.7090 N.ar  124  HIS124     -0.2268
     77  CD2       43.3470   43.3100   46.2660 C.ar  124  HIS124      0.1154
     78  CE1       43.2150   41.1650   46.7080 C.ar  124  HIS124      0.1986
     79  NE2       42.7630   42.3530   47.0640 N.ar  124  HIS124     -0.2212
     80  N         43.3790   37.0410   48.5120 N.3   130  HIS130     -0.1241
     81  CA        43.1300   37.2720   49.9210 C.3   130  HIS130      0.1621
     82  C         43.6900   36.1610   50.7940 C.2   130  HIS130      0.2264
     83  O         43.6100   34.9810   50.4570 O.2   130  HIS130     -0.2867
     84  CB        41.6300   37.4610   50.1530 C.3   130  HIS130      0.0745
     85  CG        41.1400   38.8250   49.7750 C.ar  130  HIS130      0.0817
     86  ND1       39.8070   39.1150   49.5790 N.ar  130  HIS130     -0.2268
     87  CD2       41.8110   39.9820   49.5630 C.ar  130  HIS130      0.1154
     88  CE1       39.6780   40.3900   49.2600 C.ar  130  HIS130      0.1986
     89  NE2       40.8790   40.9390   49.2430 N.ar  130  HIS130     -0.2212
     90  N         48.4760   41.5480   55.7350 N.3   137  VAL137     -0.1245
     91  CA        47.8720   42.7590   55.1860 C.3   137  VAL137      0.1561
     92  C         46.8450   42.3880   54.1190 C.2   137  VAL137      0.2260
     93  O         45.8830   43.1230   53.8840 O.2   137  VAL137     -0.2867
     94  CB        48.9370   43.7060   54.5620 C.3   137  VAL137      0.0252
     95  CG1       49.4810   43.1170   53.2750 C.3   137  VAL137      0.0019
     96  CG2       48.3310   45.0830   54.3180 C.3   137  VAL137      0.0019
     97  N         44.7000   40.2070   54.3240 N.3   139  PHE139     -0.1228
     98  CA        43.4890   39.6900   54.9450 C.3   139  PHE139      0.1721
     99  C         42.3610   40.6130   54.4610 C.2   139  PHE139      0.2437
    100  O         42.5320   41.8280   54.4120 O.2   139  PHE139     -0.2733
    101  CB        43.6120   39.7460   56.4640 C.3   139  PHE139      0.0547
    102  CG        42.5970   38.9100   57.1780 C.ar  139  PHE139     -0.0202
    103  CD1       42.5440   37.5300   56.9700 C.ar  139  PHE139     -0.0042
    104  CD2       41.6940   39.4930   58.0600 C.ar  139  PHE139     -0.0042
    105  CE1       41.6060   36.7460   57.6310 C.ar  139  PHE139     -0.0003
    106  CE2       40.7530   38.7200   58.7260 C.ar  139  PHE139     -0.0003
    107  CZ        40.7080   37.3430   58.5120 C.ar  139  PHE139     -0.0000
    108  N         41.1940   40.0490   54.1040 N.am  140  PRO140     -0.2718
    109  CA        40.0650   40.8470   53.6160 C.3   140  PRO140      0.1535
    110  C         39.4880   41.8920   54.5630 C.2   140  PRO140      0.2599
    111  O         38.5560   42.5990   54.1940 O.2   140  PRO140     -0.2715
    112  CB        39.0160   39.7910   53.2590 C.3   140  PRO140      0.0310
    113  CG        39.8180   38.5420   53.0300 C.3   140  PRO140      0.0237
    114  CD        40.8430   38.6190   54.1260 C.3   140  PRO140      0.0939
    115  N         40.0170   42.0160   55.7710 N.am  141  THR141     -0.1937
    116  CA        39.4410   42.9860   56.6920 C.3   141  THR141      0.2028
    117  C         40.2950   44.2080   56.9690 C.2   141  THR141      0.2642
    118  O         41.4920   44.1020   57.2200 O.2   141  THR141     -0.2714
    119  CB        39.0880   42.3280   58.0390 C.3   141  THR141      0.1808
    120  OG1       38.2340   41.1980   57.8090 O.3   141  THR141     -0.2208
    121  CG2       38.3690   43.3250   58.9460 C.3   141  THR141      0.0379
    122  N         39.6650   45.3760   56.9300 N.am  142  TYR142     -0.1959
    123  CA        40.3730   46.6130   57.1980 C.3   142  TYR142      0.1771
    124  C         40.6140   46.6810   58.6980 C.2   142  TYR142      0.2619
    125  O         39.6900   46.4840   59.4860 O.2   142  TYR142     -0.2715
    126  CB        39.5360   47.8160   56.7650 C.3   142  TYR142      0.0574
    127  CG        40.2080   49.1440   57.0420 C.ar  142  TYR142     -0.0198
    128  CD1       41.2270   49.6180   56.2190 C.ar  142  TYR142     -0.0009
    129  CD2       39.8510   49.9100   58.1530 C.ar  142  TYR142     -0.0009
    130  CE1       41.8730   50.8190   56.4970 C.ar  142  TYR142      0.0417
    131  CE2       40.4940   51.1130   58.4380 C.ar  142  TYR142      0.0417
    132  CZ        41.5020   51.5590   57.6070 C.ar  142  TYR142      0.1957
    133  OH        42.1480   52.7390   57.8880 O.3   142  TYR142     -0.2866
    134  N         41.8560   46.9520   59.0850 N.am  143  LYS143     -0.1977
    135  CA        42.2300   47.0630   60.4930 C.3   143  LYS143      0.1596
    136  C         43.3570   48.0930   60.5810 C.2   143  LYS143      0.2287
    137  O         44.4900   47.8240   60.1700 O.2   143  LYS143     -0.2864
    138  CB        42.7150   45.7090   61.0110 C.3   143  LYS143      0.0298
    139  CG        43.2350   45.7200   62.4410 C.3   143  LYS143      0.0038
    140  CD        42.1080   45.8510   63.4560 C.3   143  LYS143      0.0206
    141  CE        42.6360   45.6880   64.8850 C.3   143  LYS143      0.1093
    142  NZ        41.5490   45.5990   65.9120 N.3   143  LYS143     -0.1314
@<TRIPOS>BOND
     1    35    34   ar
     2    35    33   ar
     3    34    32   ar
     4    33    31   ar
     5    73    72    2
     6    32    31   ar
     7    31    30    1
     8    72    71    1
     9    29    28    2
    10    28    27    1
    11    30    27    1
    12    71    74    1
    13    71    70    1
    14    74    75    1
    15    27    26    1
    16    64    63    2
    17    26    23   am
    18    75    76   ar
    19    75    77   ar
    20    76    78   ar
    21    68    67   ar
    22    63    62    1
    23    77    79   ar
    24    23    24    2
    25    23    22    1
    26    12    10    1
    27    65    62    1
    28    65    66    1
    29    78    79   ar
    30    62    61    1
    31    67    66    1
    32    67    69   ar
    33    22    25    1
    34    22    21    1
    35    11     9    1
    36    10     9    1
    37     9     6    1
    38    21    15   am
    39    54    53    2
    40    61    53   am
    41    16    15    2
    42    80    81    1
    43    15    14    1
    44    53    52    1
    45    89    88   ar
    46    89    87   ar
    47    88    86   ar
    48     8     7    2
    49     6     7    1
    50     6     5    1
    51    87    85   ar
    52    86    85   ar
    53     7    13   am
    54    85    84    1
    55    81    84    1
    56    81    82    1
    57    13    14    1
    58    47    46    2
    59    58    60   ar
    60    58    56   ar
    61    14    17    1
    62    60    59   ar
    63     5     3   am
    64    52    51    1
    65    52    55    1
    66    83    82    2
    67    50    48    1
    68    46    45    1
    69    56    55    1
    70    56    57   ar
    71    59    57   ar
    72    17    18    1
    73    48    45    1
    74    48    49    1
    75     3     4    2
    76     3     2    1
    77    45    44    1
    78     2     1    1
    79    18    20    1
    80    18    19    1
    81    39    38    2
    82   113   112    1
    83   113   114    1
    84    44    38   am
    85   112   109    1
    86    95    94    1
    87    38    37    1
    88   109   108    1
    89   109   110    1
    90    93    92    2
    91   108   114    1
    92   108    99   am
    93    92    91    1
    94   111   110    2
    95    96    94    1
    96    97    98    1
    97    36    37    1
    98   100    99    2
    99    99    98    1
   100    94    91    1
   101   110   115   am
   102    37    40    1
   103    98   101    1
   104    91    90    1
   105   115   116    1
   106    40    41    1
   107   128   130   ar
   108   128   127   ar
   109   101   102    1
   110   130   132   ar
   111   116   117    1
   112   116   119    1
   113   126   127    1
   114   126   123    1
   115   122   117   am
   116   122   123    1
   117   117   118    2
   118   103   102   ar
   119   103   105   ar
   120   127   129   ar
   121    43    41    1
   122   102   104   ar
   123    41    42    1
   124   123   124    1
   125   132   133    1
   126   132   131   ar
   127   105   107   ar
   128   120   119    1
   129   119   121    1
   130   104   106   ar
   131   129   131   ar
   132   107   106   ar
   133   124   134   am
   134   124   125    2
   135   134   135    1
   136   137   136    2
   137   135   136    1
   138   135   138    1
   139   138   139    1
   140   139   140    1
   141   140   141    1
   142   141   142    1
