@<TRIPOS>MOLECULE
tmp/1jj0A00.pdb
 147 143 0 0 0
SMALL
GASTEIGER

@<TRIPOS>ATOM
      1  N         -4.1820   54.7010   -4.8310 N.3    35  GLU35      -0.1245
      2  CA        -4.8690   55.4160   -3.7600 C.3    35  GLU35       0.1567
      3  C         -5.5950   56.6540   -4.2880 C.2    35  GLU35       0.2260
      4  O         -6.7110   56.9570   -3.8650 O.2    35  GLU35      -0.2867
      5  CB        -3.8840   55.8530   -2.6710 C.3    35  GLU35       0.0388
      6  CG        -3.3890   54.7550   -1.7290 C.3    35  GLU35       0.1160
      7  CD        -4.4820   54.1690   -0.8460 C.2    35  GLU35       0.3649
      8  OE1       -5.5440   54.8090   -0.6970 O.co2  35  GLU35      -0.2457
      9  OE2       -4.2730   53.0670   -0.2910 O.co2  35  GLU35      -0.2457
     10  N        -14.8400   57.9450    4.5750 N.3    46  ASN46      -0.1240
     11  CA       -15.0140   56.5610    4.9940 C.3    46  ASN46       0.1653
     12  C        -16.2500   56.4110    5.8680 C.2    46  ASN46       0.2266
     13  O        -16.8380   57.4010    6.2990 O.2    46  ASN46      -0.2867
     14  CB       -13.7700   56.0810    5.7470 C.3    46  ASN46       0.1155
     15  CG       -12.4870   56.3810    4.9940 C.2    46  ASN46       0.2627
     16  OD1      -11.8200   57.3800    5.2570 O.2    46  ASN46      -0.2716
     17  ND2      -12.1460   55.5240    4.0430 N.am   46  ASN46      -0.0877
     18  N        -10.1270   60.6550    3.7350 N.3    52  ASP52      -0.1239
     19  CA        -8.7570   60.4260    3.2630 C.3    52  ASP52       0.1674
     20  C         -8.3980   61.5610    2.3180 C.2    52  ASP52       0.2266
     21  O         -9.1910   61.9110    1.4460 O.2    52  ASP52      -0.2867
     22  CB        -8.6450   59.0960    2.5150 C.3    52  ASP52       0.1410
     23  CG        -8.7070   57.9050    3.4400 C.2    52  ASP52       0.3668
     24  OD1       -8.3670   58.0640    4.6300 O.co2  52  ASP52      -0.2456
     25  OD2       -9.0810   56.8090    2.9750 O.co2  52  ASP52      -0.2456
     26  N         -3.7210   59.5850    0.2000 N.3    57  GLN57      -0.1231
     27  CA        -4.9380   59.3900    0.9770 C.3    57  GLN57       0.1698
     28  C         -4.7000   59.2700    2.4820 C.2    57  GLN57       0.2592
     29  O         -4.9670   58.2260    3.0810 O.2    57  GLN57      -0.2718
     30  CB        -5.6680   58.1470    0.4590 C.3    57  GLN57       0.0381
     31  CG        -6.2060   58.3110   -0.9520 C.3    57  GLN57       0.0905
     32  CD        -7.4070   59.2330   -0.9980 C.2    57  GLN57       0.2608
     33  OE1       -8.5360   58.8010   -0.7810 O.2    57  GLN57      -0.2717
     34  NE2       -7.1670   60.5150   -1.2590 N.am   57  GLN57      -0.0878
     35  N         -4.2110   60.3500    3.0780 N.am   58  ILE58      -0.1966
     36  CA        -3.9320   60.4050    4.5090 C.3    58  ILE58       0.1727
     37  C         -5.2480   60.6080    5.2560 C.2    58  ILE58       0.2616
     38  O         -6.0080   61.5320    4.9570 O.2    58  ILE58      -0.2715
     39  CB        -2.9430   61.5530    4.8210 C.3    58  ILE58       0.0290
     40  CG1       -1.6400   61.3260    4.0480 C.3    58  ILE58       0.0022
     41  CG2       -2.6730   61.6420    6.3170 C.3    58  ILE58       0.0023
     42  CD1       -1.0810   59.9400    4.1820 C.3    58  ILE58       0.0001
     43  N         -5.5000   59.7370    6.2300 N.am   59  ASN59      -0.1972
     44  CA        -6.7350   59.7450    7.0090 C.3    59  ASN59       0.1688
     45  C         -6.8330   60.7980    8.1160 C.2    59  ASN59       0.2292
     46  O         -5.8830   61.0200    8.8710 O.2    59  ASN59      -0.2864
     47  CB        -6.9560   58.3450    7.5940 C.3    59  ASN59       0.1181
     48  CG        -8.3040   58.1990    8.2500 C.2    59  ASN59       0.2629
     49  OD1       -8.4270   58.2950    9.4690 O.2    59  ASN59      -0.2716
     50  ND2       -9.3320   57.9760    7.4400 N.am   59  ASN59      -0.0877
     51  N         -6.4700   60.0020   12.3510 N.3    62  TRP62      -0.1227
     52  CA        -5.2060   59.9760   13.0790 C.3    62  TRP62       0.1737
     53  C         -4.1090   60.9390   12.6450 C.2    62  TRP62       0.2595
     54  O         -3.3240   61.3910   13.4750 O.2    62  TRP62      -0.2718
     55  CB        -4.5840   58.5750   13.0300 C.3    62  TRP62       0.0564
     56  CG        -5.5330   57.4470   13.2330 C.ar   62  TRP62       0.0003
     57  CD1       -6.2580   56.8050   12.2730 C.ar   62  TRP62       0.0946
     58  CD2       -5.8560   56.8150   14.4740 C.ar   62  TRP62       0.0152
     59  NE1       -7.0110   55.8060   12.8390 N.ar   62  TRP62      -0.2442
     60  CE2       -6.7840   55.7900   14.1900 C.ar   62  TRP62       0.0810
     61  CE3       -5.4500   57.0140   15.8000 C.ar   62  TRP62       0.0012
     62  CZ2       -7.3170   54.9620   15.1860 C.ar   62  TRP62       0.0191
     63  CZ3       -5.9790   56.1890   16.7930 C.ar   62  TRP62       0.0001
     64  CH2       -6.9030   55.1770   16.4770 C.ar   62  TRP62       0.0015
     65  N         -4.0510   61.2620   11.3590 N.am   63  TRP63      -0.1976
     66  CA        -2.9470   62.0700   10.8570 C.3    63  TRP63       0.1640
     67  C         -3.0810   63.5610   10.5910 C.2    63  TRP63       0.2290
     68  O         -2.0910   64.2830   10.6480 O.2    63  TRP63      -0.2864
     69  CB        -2.3950   61.3810    9.6100 C.3    63  TRP63       0.0576
     70  CG        -2.2400   59.9000    9.8150 C.ar   63  TRP63       0.0006
     71  CD1       -3.0400   58.9100    9.3190 C.ar   63  TRP63       0.0946
     72  CD2       -1.2480   59.2500   10.6200 C.ar   63  TRP63       0.0152
     73  NE1       -2.6090   57.6810    9.7670 N.ar   63  TRP63      -0.2442
     74  CE2       -1.5110   57.8630   10.5690 C.ar   63  TRP63       0.0810
     75  CE3       -0.1640   59.7060   11.3830 C.ar   63  TRP63       0.0012
     76  CZ2       -0.7270   56.9230   11.2510 C.ar   63  TRP63       0.0191
     77  CZ3        0.6180   58.7690   12.0640 C.ar   63  TRP63       0.0001
     78  CH2        0.3290   57.3940   11.9890 C.ar   63  TRP63       0.0015
     79  N          3.7710   57.9060    9.1130 N.3    98  ILE98      -0.1245
     80  CA         2.8060   56.8110    9.0530 C.3    98  ILE98       0.1561
     81  C          3.5080   55.4670    8.8400 C.2    98  ILE98       0.2260
     82  O          3.2180   54.4950    9.5390 O.2    98  ILE98      -0.2867
     83  CB         1.7820   57.0210    7.9000 C.3    98  ILE98       0.0252
     84  CG1        0.9530   58.2830    8.1540 C.3    98  ILE98       0.0019
     85  CG2        0.8560   55.8090    7.7840 C.3    98  ILE98       0.0019
     86  CD1        0.0170   58.6410    7.0130 C.3    98  ILE98       0.0001
     87  N          5.1960   54.0090   11.7840 N.3   101  ASP101     -0.1239
     88  CA         4.2570   53.7240   12.8650 C.3   101  ASP101      0.1674
     89  C          4.2860   52.2940   13.4050 C.2   101  ASP101      0.2266
     90  O          3.9330   52.0590   14.5630 O.2   101  ASP101     -0.2867
     91  CB         2.8410   54.0820   12.3990 C.3   101  ASP101      0.1410
     92  CG         1.8220   54.0230   13.5140 C.2   101  ASP101      0.3668
     93  OD1        2.0290   54.6940   14.5480 O.co2 101  ASP101     -0.2456
     94  OD2        0.8020   53.3150   13.3480 O.co2 101  ASP101     -0.2456
     95  N          3.2410   49.1970   11.3060 N.3   103  ASN103     -0.1240
     96  CA         2.7560   48.2510   10.3100 C.3   103  ASN103      0.1653
     97  C          3.2770   48.5460    8.9080 C.2   103  ASN103      0.2266
     98  O          2.8610   47.9230    7.9370 O.2   103  ASN103     -0.2867
     99  CB         1.2290   48.2130   10.3300 C.3   103  ASN103      0.1155
    100  CG         0.6870   47.4800   11.5460 C.2   103  ASN103      0.2627
    101  OD1        1.0300   47.8040   12.6840 O.2   103  ASN103     -0.2716
    102  ND2       -0.1590   46.4830   11.3100 N.am  103  ASN103     -0.0877
    103  N          1.5570   48.7200    5.1120 N.3   106  ASN106     -0.1225
    104  CA         0.2870   48.0090    5.2160 C.3   106  ASN106      0.1785
    105  C         -0.8130   48.9740    5.6580 C.2   106  ASN106      0.2597
    106  O         -1.9980   48.6410    5.6050 O.2   106  ASN106     -0.2718
    107  CB         0.4020   46.8420    6.2050 C.3   106  ASN106      0.1169
    108  CG         1.2480   45.7050    5.6650 C.2   106  ASN106      0.2627
    109  OD1        0.8900   45.0650    4.6720 O.2   106  ASN106     -0.2716
    110  ND2        2.3810   45.4520    6.3110 N.am  106  ASN106     -0.0877
    111  N         -0.4120   50.1700    6.0850 N.am  107  ALA107     -0.1966
    112  CA        -1.3590   51.2010    6.5130 C.3   107  ALA107      0.1728
    113  C         -2.2100   51.6370    5.3180 C.2   107  ALA107      0.2616
    114  O         -3.3550   52.0750    5.4750 O.2   107  ALA107     -0.2715
    115  CB        -0.6080   52.3990    7.0800 C.3   107  ALA107      0.0334
    116  N         -1.6420   51.5140    4.1230 N.am  108  TRP108     -0.1960
    117  CA        -2.3460   51.8770    2.9000 C.3   108  TRP108      0.1771
    118  C         -3.0120   50.6430    2.3170 C.2   108  TRP108      0.2619
    119  O         -2.3530   49.7360    1.8040 O.2   108  TRP108     -0.2715
    120  CB        -1.3740   52.4990    1.8980 C.3   108  TRP108      0.0590
    121  CG        -0.9850   53.9020    2.2730 C.ar  108  TRP108      0.0006
    122  CD1       -1.7090   55.0440    2.0460 C.ar  108  TRP108      0.0946
    123  CD2        0.2080   54.3130    2.9520 C.ar  108  TRP108      0.0152
    124  NE1       -1.0360   56.1360    2.5370 N.ar  108  TRP108     -0.2442
    125  CE2        0.1430   55.7170    3.0990 C.ar  108  TRP108      0.0810
    126  CE3        1.3270   53.6310    3.4510 C.ar  108  TRP108      0.0012
    127  CZ2        1.1560   56.4540    3.7230 C.ar  108  TRP108      0.0191
    128  CZ3        2.3340   54.3630    4.0740 C.ar  108  TRP108      0.0001
    129  CH2        2.2410   55.7630    4.2030 C.ar  108  TRP108      0.0015
    130  N         -4.3350   50.6190    2.4080 N.am  109  VAL109     -0.1977
    131  CA        -5.1220   49.4930    1.9270 C.3   109  VAL109      0.1596
    132  C         -4.8420   49.1070    0.4760 C.2   109  VAL109      0.2287
    133  O         -4.6900   47.9270    0.1680 O.2   109  VAL109     -0.2864
    134  CB        -6.6310   49.7800    2.0980 C.3   109  VAL109      0.0276
    135  CG1       -7.4400   48.5470    1.7280 C.3   109  VAL109      0.0022
    136  CG2       -6.9140   50.1940    3.5360 C.3   109  VAL109      0.0022
    137  N         -1.4320   47.3180    0.1220 N.3   112  ARG112     -0.1245
    138  CA        -1.5300   45.9590    0.6400 C.3   112  ARG112      0.1563
    139  C         -2.2280   45.0330   -0.3650 C.2   112  ARG112      0.2260
    140  O         -1.7870   43.9080   -0.6040 O.2   112  ARG112     -0.2867
    141  CB        -2.3080   45.9930    1.9600 C.3   112  ARG112      0.0307
    142  CG        -2.2690   44.7260    2.7910 C.3   112  ARG112      0.0489
    143  CD        -2.9760   44.9570    4.1280 C.3   112  ARG112      0.2205
    144  NE        -4.4130   45.1740    3.9540 N.pl3 112  ARG112     -0.0865
    145  CZ        -5.0910   46.1950    4.4690 C.cat 112  ARG112      0.5346
    146  NH1       -4.4700   47.1140    5.1990 N.pl3 112  ARG112      0.1354
    147  NH2       -6.3960   46.2990    4.2540 N.pl3 112  ARG112      0.1354
@<TRIPOS>BOND
     1     1     2    1
     2     3     4    2
     3     3     2    1
     4     2     5    1
     5     5     6    1
     6     6     7    1
     7    34    32   am
     8    32    31    1
     9    32    33    2
    10    31    30    1
    11     7     8   ar
    12     7     9   ar
    13   140   139    2
    14   139   138    1
    15   137   138    1
    16   133   132    2
    17    26    27    1
    18    30    27    1
    19   132   131    1
    20   138   141    1
    21    27    28    1
    22    21    20    2
    23   135   134    1
    24   119   118    2
    25   120   121    1
    26   120   117    1
    27   131   134    1
    28   131   130    1
    29   141   142    1
    30   122   121   ar
    31   122   124   ar
    32   134   136    1
    33   121   123   ar
    34   118   130   am
    35   118   117    1
    36    20    19    1
    37    28    35   am
    38    28    29    2
    39    22    19    1
    40    22    23    1
    41   124   125   ar
    42   142   143    1
    43   117   116    1
    44   123   125   ar
    45   123   126   ar
    46    25    23   ar
    47    35    36    1
    48   125   127   ar
    49    19    18    1
    50    23    24   ar
    51   126   128   ar
    52   127   129   ar
    53   144   143    1
    54   144   145    2
    55    17    15   am
    56    40    42    1
    57    40    39    1
    58   128   129   ar
    59   116   113   am
    60   147   145    1
    61   145   146    1
    62    36    39    1
    63    36    37    1
    64    10    11    1
    65   109   108    2
    66    39    41    1
    67    38    37    2
    68    11    14    1
    69    11    12    1
    70    15    16    2
    71    15    14    1
    72   103   104    1
    73   104   105    1
    74   104   107    1
    75    37    43   am
    76   113   114    2
    77   113   112    1
    78   106   105    2
    79   105   111   am
    80   108   107    1
    81   108   110   am
    82    12    13    2
    83   111   112    1
    84    43    44    1
    85   112   115    1
    86    44    47    1
    87    44    45    1
    88    86    84    1
    89    50    48   am
    90    47    48    1
    91    85    83    1
    92    83    84    1
    93    83    80    1
    94    98    97    2
    95    45    46    2
    96    48    49    2
    97    81    80    1
    98    81    82    2
    99    97    96    1
   100    80    79    1
   101    71    73   ar
   102    71    70   ar
   103    69    70    1
   104    69    66    1
   105    73    74   ar
   106    70    72   ar
   107    96    99    1
   108    96    95    1
   109    99   100    1
   110    74    72   ar
   111    74    76   ar
   112    67    68    2
   113    67    66    1
   114    72    75   ar
   115    66    65    1
   116    76    78   ar
   117   102   100   am
   118    65    53   am
   119    75    77   ar
   120   100   101    2
   121    87    88    1
   122    78    77   ar
   123    57    59   ar
   124    57    56   ar
   125    51    52    1
   126    91    88    1
   127    91    92    1
   128    53    52    1
   129    53    54    2
   130    59    60   ar
   131    88    89    1
   132    55    52    1
   133    55    56    1
   134    56    58   ar
   135    94    92   ar
   136    89    90    2
   137    92    93   ar
   138    60    58   ar
   139    60    62   ar
   140    58    61   ar
   141    62    64   ar
   142    61    63   ar
   143    64    63   ar
