@<TRIPOS>MOLECULE
tmp/1jj7A00.pdb
 94 91 0 0 0
SMALL
GASTEIGER

@<TRIPOS>ATOM
      1  N        137.8820    0.8080   12.9680 N.3    21  TYR21      -0.1241
      2  CA       138.6560   -0.0160   12.0530 C.3    21  TYR21       0.1605
      3  C        138.0590   -1.4230   12.0010 C.2    21  TYR21       0.2264
      4  O        137.4950   -1.9160   12.9870 O.2    21  TYR21      -0.2867
      5  CB       140.1290   -0.0790   12.4770 C.3    21  TYR21       0.0534
      6  CG       140.9170    1.1690   12.1060 C.ar   21  TYR21      -0.0201
      7  CD1      140.8820    2.3050   12.9140 C.ar   21  TYR21      -0.0009
      8  CD2      141.6960    1.2120   10.9420 C.ar   21  TYR21      -0.0009
      9  CE1      141.6020    3.4460   12.5840 C.ar   21  TYR21       0.0417
     10  CE2      142.4220    2.3570   10.6010 C.ar   21  TYR21       0.0417
     11  CZ       142.3660    3.4690   11.4320 C.ar   21  TYR21       0.1957
     12  OH       143.0670    4.6110   11.1210 O.3    21  TYR21      -0.2866
     13  N        139.4580   -4.2780   12.0000 N.3    23  ASN23      -0.1225
     14  CA       140.1000   -5.2110   12.9220 C.3    23  ASN23       0.1785
     15  C        139.8550   -4.9440   14.3970 C.2    23  ASN23       0.2597
     16  O        140.4210   -5.6210   15.2550 O.2    23  ASN23      -0.2718
     17  CB       141.6060   -5.2750   12.6420 C.3    23  ASN23       0.1169
     18  CG       141.9130   -5.8680   11.2710 C.2    23  ASN23       0.2627
     19  OD1      141.3810   -6.9200   10.9160 O.2    23  ASN23      -0.2716
     20  ND2      142.7710   -5.2000   10.4980 N.am   23  ASN23      -0.0877
     21  N        139.0110   -3.9580   14.6870 N.am   24  ARG24      -0.1979
     22  CA       138.6420   -3.6070   16.0630 C.3    24  ARG24       0.1597
     23  C        137.3190   -2.8540   15.9350 C.2    24  ARG24       0.2287
     24  O        137.1940   -1.6960   16.3460 O.2    24  ARG24      -0.2864
     25  CB       139.7060   -2.7140   16.6760 C.3    24  ARG24       0.0334
     26  CG       139.6360   -2.5530   18.1910 C.3    24  ARG24       0.0492
     27  CD       140.6880   -1.5330   18.5920 C.3    24  ARG24       0.2205
     28  NE       140.7220   -1.2280   20.0080 N.pl3  24  ARG24      -0.0865
     29  CZ       141.1390   -0.0660   20.4980 C.cat  24  ARG24       0.5346
     30  NH1      141.5450    0.8940   19.6760 N.pl3  24  ARG24       0.1354
     31  NH2      141.1620    0.1330   21.8100 N.pl3  24  ARG24       0.1354
     32  N        136.9190    5.1230   16.5840 N.3    29  VAL29      -0.1245
     33  CA       138.0570    6.0230   16.7300 C.3    29  VAL29       0.1561
     34  C        137.7040    7.4380   16.2940 C.2    29  VAL29       0.2260
     35  O        138.3870    8.3880   16.6520 O.2    29  VAL29      -0.2867
     36  CB       139.2600    5.5270   15.9410 C.3    29  VAL29       0.0252
     37  CG1      139.8140    4.2940   16.6070 C.3    29  VAL29       0.0019
     38  CG2      138.8590    5.2380   14.5160 C.3    29  VAL29       0.0019
     39  N        148.5420   12.6540   19.8250 N.3    49  ASN49      -0.1225
     40  CA       148.7320   11.4340   19.0530 C.3    49  ASN49       0.1785
     41  C        147.5750   10.5020   19.4030 C.2    49  ASN49       0.2598
     42  O        147.1300   10.4530   20.5550 O.2    49  ASN49      -0.2718
     43  CB       150.0590   10.7660   19.4210 C.3    49  ASN49       0.1169
     44  CG       151.2570   11.5050   18.8600 C.2    49  ASN49       0.2627
     45  OD1      151.4630   11.5490   17.6440 O.2    49  ASN49      -0.2716
     46  ND2      152.0490   12.1010   19.7440 N.am   49  ASN49      -0.0877
     47  N        147.0800    9.7790   18.4060 N.am   50  GLY50      -0.1942
     48  CA       145.9800    8.8640   18.6380 C.3    50  GLY50       0.2014
     49  C        144.6100    9.5160   18.7370 C.2    50  GLY50       0.2640
     50  O        143.6380    8.8510   19.0880 O.2    50  GLY50      -0.2714
     51  N        144.5060   10.8070   18.4390 N.am   51  SER51      -0.1935
     52  CA       143.2020   11.4480   18.5190 C.3    51  SER51       0.2055
     53  C        142.3650   11.1620   17.2680 C.2    51  SER51       0.2644
     54  O        141.1680   11.4230   17.2540 O.2    51  SER51      -0.2714
     55  CB       143.3400   12.9580   18.7700 C.3    51  SER51       0.2130
     56  OG       144.1200   13.6060   17.7870 O.3    51  SER51      -0.2179
     57  N        142.9970   10.6150   16.2270 N.am   52  GLY52      -0.1939
     58  CA       142.2790   10.2610   15.0070 C.3    52  GLY52       0.2014
     59  C        142.5080   11.1110   13.7690 C.2    52  GLY52       0.2639
     60  O        141.7640   11.0040   12.7880 O.2    52  GLY52      -0.2714
     61  N        143.5500   11.9350   13.7850 N.am   53  LYS53      -0.1963
     62  CA       143.8200   12.8130   12.6530 C.3    53  LYS53       0.1728
     63  C        144.1360   12.0450   11.3710 C.2    53  LYS53       0.2617
     64  O        143.5540   12.3150   10.3240 O.2    53  LYS53      -0.2715
     65  CB       144.9340   13.7970   13.0310 C.3    53  LYS53       0.0311
     66  CG       144.5100   14.7580   14.1550 C.3    53  LYS53       0.0038
     67  CD       145.6360   15.6700   14.6500 C.3    53  LYS53       0.0206
     68  CE       146.6700   14.8970   15.4530 C.3    53  LYS53       0.1093
     69  NZ       147.3830   13.9620   14.5670 N.3    53  LYS53      -0.1314
     70  N        145.0250   11.0660   11.4470 N.am   54  SER54      -0.1936
     71  CA       145.3530   10.2790   10.2660 C.3    54  SER54       0.2055
     72  C        144.1750    9.4300    9.7760 C.2    54  SER54       0.2643
     73  O        144.0440    9.1820    8.5770 O.2    54  SER54      -0.2714
     74  CB       146.5590    9.3870   10.5510 C.3    54  SER54       0.2130
     75  OG       147.7040   10.1880   10.8320 O.3    54  SER54      -0.2179
     76  N        143.3110    9.0030   10.6960 N.am   55  THR55      -0.1950
     77  CA       142.1500    8.1880   10.3430 C.3    55  THR55       0.1897
     78  C        141.1720    9.0250    9.5020 C.2    55  THR55       0.2313
     79  O        140.5490    8.5260    8.5660 O.2    55  THR55      -0.2863
     80  CB       141.4380    7.6510   11.6170 C.3    55  THR55       0.1794
     81  OG1      142.3490    6.8290   12.3620 O.3    55  THR55      -0.2208
     82  CG2      140.2130    6.8270   11.2440 C.3    55  THR55       0.0378
     83  N        138.7640    3.4660    3.6920 N.3    64  TYR64      -0.1241
     84  CA       137.7870    2.7560    4.5050 C.3    64  TYR64       0.1605
     85  C        136.4900    3.5310    4.3440 C.2    64  TYR64       0.2264
     86  O        136.4910    4.6500    3.8290 O.2    64  TYR64      -0.2867
     87  CB       138.1680    2.7720    5.9820 C.3    64  TYR64       0.0534
     88  CG       139.5110    2.1820    6.3110 C.ar   64  TYR64      -0.0201
     89  CD1      139.6810    0.8020    6.4490 C.ar   64  TYR64      -0.0009
     90  CD2      140.6140    3.0100    6.5260 C.ar   64  TYR64      -0.0009
     91  CE1      140.9190    0.2640    6.8050 C.ar   64  TYR64       0.0417
     92  CE2      141.8410    2.4870    6.8740 C.ar   64  TYR64       0.0417
     93  CZ       141.9910    1.1160    7.0180 C.ar   64  TYR64       0.1957
     94  OH       143.2130    0.6190    7.4010 O.3    64  TYR64      -0.2866
@<TRIPOS>BOND
     1    83    84    1
     2    86    85    2
     3    85    84    1
     4    84    87    1
     5    87    88    1
     6    88    89   ar
     7    88    90   ar
     8    89    91   ar
     9    90    92   ar
    10    91    93   ar
    11    92    93   ar
    12    93    94    1
    13    79    78    2
    14    73    72    2
    15    78    77    1
    16    72    71    1
    17    72    76   am
    18    71    74    1
    19    71    70    1
    20    64    63    2
    21    77    76    1
    22    77    80    1
    23    20    18   am
    24    74    75    1
    25    10     8   ar
    26    10    11   ar
    27    19    18    2
    28     8     6   ar
    29    12    11    1
    30    82    80    1
    31    18    17    1
    32    63    70   am
    33    63    62    1
    34    11     9   ar
    35    80    81    1
    36    13    14    1
    37     3     2    1
    38     3     4    2
    39     2     5    1
    40     2     1    1
    41     6     5    1
    42     6     7   ar
    43     9     7   ar
    44    17    14    1
    45    62    65    1
    46    62    61    1
    47    60    59    2
    48    14    15    1
    49    65    66    1
    50    59    61   am
    51    59    58    1
    52    66    67    1
    53    15    21   am
    54    15    16    2
    55    38    36    1
    56    69    68    1
    57    67    68    1
    58    21    22    1
    59    58    57    1
    60    23    22    1
    61    23    24    2
    62    36    37    1
    63    36    33    1
    64    22    25    1
    65    57    53   am
    66    34    35    2
    67    34    33    1
    68    32    33    1
    69    25    26    1
    70    54    53    2
    71    53    52    1
    72    45    44    2
    73    56    55    1
    74    26    27    1
    75    47    48    1
    76    47    41   am
    77    51    52    1
    78    51    49   am
    79    52    55    1
    80    27    28    1
    81    48    49    1
    82    49    50    2
    83    44    43    1
    84    44    46   am
    85    40    41    1
    86    40    43    1
    87    40    39    1
    88    41    42    2
    89    30    29    1
    90    28    29    2
    91    29    31    1
