@<TRIPOS>MOLECULE
tmp/1jj9A00.pdb
 129 128 0 0 0
SMALL
GASTEIGER

@<TRIPOS>ATOM
      1  N         27.3040   21.6140   35.9550 N.3    74  GLY74      -0.1210
      2  CA        28.0440   21.6050   34.7000 C.3    74  GLY74       0.1956
      3  C         27.0770   22.1080   33.6330 C.2    74  GLY74       0.2612
      4  O         26.3650   23.0940   33.8570 O.2    74  GLY74      -0.2717
      5  N         26.9880   21.4280   32.4950 N.am   75  ILE75      -0.1965
      6  CA        26.0540   21.9050   31.4830 C.3    75  ILE75       0.1727
      7  C         24.6630   21.5280   31.9530 C.2    75  ILE75       0.2616
      8  O         24.4230   20.4330   32.5100 O.2    75  ILE75      -0.2715
      9  CB        26.3370   21.4360   30.0170 C.3    75  ILE75       0.0290
     10  CG1       25.4020   20.3070   29.6190 C.3    75  ILE75       0.0022
     11  CG2       27.8020   21.0850   29.8190 C.3    75  ILE75       0.0023
     12  CD1       25.2750   20.1930   28.1510 C.3    75  ILE75       0.0001
     13  N         23.7680   22.4780   31.7820 N.am   76  LEU76      -0.1963
     14  CA        22.3840   22.3540   32.1670 C.3    76  LEU76       0.1728
     15  C         21.4370   21.8580   31.0910 C.2    76  LEU76       0.2616
     16  O         20.4410   21.2030   31.3980 O.2    76  LEU76      -0.2715
     17  CB        21.8850   23.7290   32.6410 C.3    76  LEU76       0.0311
     18  CG        22.1780   24.2740   34.0420 C.3    76  LEU76       0.0022
     19  CD1       23.3520   23.5770   34.7340 C.3    76  LEU76       0.0001
     20  CD2       22.3550   25.7900   33.9460 C.3    76  LEU76       0.0001
     21  N         21.7250   22.2120   29.8410 N.am   77  ALA77      -0.1963
     22  CA        20.8900   21.8210   28.7110 C.3    77  ALA77       0.1728
     23  C         21.5850   22.2240   27.4300 C.2    77  ALA77       0.2616
     24  O         22.6750   22.8000   27.4710 O.2    77  ALA77      -0.2715
     25  CB        19.5420   22.5530   28.7910 C.3    77  ALA77       0.0334
     26  N         20.9870   21.8770   26.2980 N.am   78  HIS78      -0.1959
     27  CA        21.5450   22.2270   24.9910 C.3    78  HIS78       0.1787
     28  C         20.4600   22.2240   23.9330 C.2    78  HIS78       0.2620
     29  O         19.4520   21.5450   24.0810 O.2    78  HIS78      -0.2715
     30  CB        22.8110   21.4120   24.5800 C.3    78  HIS78       0.0785
     31  CG        22.6240   19.9200   24.5070 C.ar   78  HIS78       0.0821
     32  ND1       23.5000   19.0160   25.0760 N.ar   78  HIS78      -0.2267
     33  CD2       21.7080   19.1700   23.8370 C.ar   78  HIS78       0.1154
     34  CE1       23.1150   17.7840   24.7310 C.ar   78  HIS78       0.1986
     35  NE2       22.0340   17.8190   23.9840 N.ar   78  HIS78      -0.2212
     36  N         20.6330   23.0570   22.9160 N.am   79  ALA79      -0.1977
     37  CA        19.6700   23.1670   21.8300 C.3    79  ALA79       0.1597
     38  C         20.3890   23.1480   20.5090 C.2    79  ALA79       0.2287
     39  O         21.5910   23.3920   20.4520 O.2    79  ALA79      -0.2864
     40  CB        18.8570   24.4420   21.9670 C.3    79  ALA79       0.0319
     41  N         14.0600   30.2130   33.2000 N.3   109  LEU109     -0.1231
     42  CA        15.2800   30.9150   32.7650 C.3   109  LEU109      0.1693
     43  C         16.1760   30.0860   31.8490 C.2   109  LEU109      0.2591
     44  O         16.6550   30.5730   30.8210 O.2   109  LEU109     -0.2718
     45  CB        16.0590   31.4430   33.9690 C.3   109  LEU109      0.0284
     46  CG        15.4700   32.6720   34.6790 C.3   109  LEU109      0.0019
     47  CD1       16.2840   32.9390   35.9240 C.3   109  LEU109      0.0001
     48  CD2       15.5080   33.8980   33.7850 C.3   109  LEU109      0.0001
     49  N         16.3890   28.8170   32.2070 N.am  110  VAL110     -0.1980
     50  CA        17.2240   27.9380   31.3950 C.3   110  VAL110      0.1595
     51  C         16.5330   27.7060   30.0570 C.2   110  VAL110      0.2287
     52  O         17.1560   27.7760   29.0060 O.2   110  VAL110     -0.2864
     53  CB        17.5100   26.5950   32.1320 C.3   110  VAL110      0.0276
     54  CG1       18.1830   25.5750   31.1810 C.3   110  VAL110      0.0022
     55  CG2       18.4260   26.8760   33.3060 C.3   110  VAL110      0.0022
     56  N         16.7530   30.7210   27.6970 N.3   113  HIS113     -0.1226
     57  CA        18.0730   30.7870   27.0900 C.3   113  HIS113      0.1752
     58  C         18.2180   29.7610   25.9590 C.2   113  HIS113      0.2595
     59  O         18.7970   30.0590   24.9050 O.2   113  HIS113     -0.2718
     60  CB        19.1500   30.5690   28.1480 C.3   113  HIS113      0.0759
     61  CG        20.5410   30.5230   27.5960 C.ar  113  HIS113      0.0818
     62  ND1       21.4210   31.5840   27.6190 N.ar  113  HIS113     -0.2268
     63  CD2       21.2230   29.4950   27.0310 C.ar  113  HIS113      0.1154
     64  CE1       22.5820   31.1800   27.0840 C.ar  113  HIS113      0.1986
     65  NE2       22.5110   29.9140   26.7110 N.ar  113  HIS113     -0.2212
     66  N         17.7670   28.5240   26.2080 N.am  114  GLU114     -0.1979
     67  CA        17.8420   27.4530   25.1920 C.3   114  GLU114      0.1602
     68  C         17.0520   27.8060   23.9430 C.2   114  GLU114      0.2287
     69  O         17.5010   27.5390   22.8370 O.2   114  GLU114     -0.2864
     70  CB        17.3170   26.1090   25.7300 C.3   114  GLU114      0.0415
     71  CG        18.1210   25.5590   26.8970 C.3   114  GLU114      0.1163
     72  CD        19.6140   25.5740   26.6270 C.2   114  GLU114      0.3649
     73  OE1       20.3750   25.9660   27.5310 O.co2 114  GLU114     -0.2457
     74  OE2       20.0320   25.2130   25.5090 O.co2 114  GLU114     -0.2457
     75  N         18.8870   29.7130   21.4430 N.3   117  HIS117     -0.1241
     76  CA        19.7410   28.8680   20.6030 C.3   117  HIS117      0.1621
     77  C         18.8440   28.2410   19.5260 C.2   117  HIS117      0.2264
     78  O         19.1480   28.2750   18.3430 O.2   117  HIS117     -0.2867
     79  CB        20.4130   27.7530   21.4370 C.3   117  HIS117      0.0745
     80  CG        21.5620   28.2250   22.2790 C.ar  117  HIS117      0.0817
     81  ND1       22.6630   28.8910   21.7820 N.ar  117  HIS117     -0.2268
     82  CD2       21.7750   28.1140   23.6140 C.ar  117  HIS117      0.1154
     83  CE1       23.4900   29.1620   22.8040 C.ar  117  HIS117      0.1986
     84  NE2       23.0050   28.7120   23.9460 N.ar  117  HIS117     -0.2212
     85  N         25.7940   33.1780   21.4120 N.3   123  HIS123     -0.1241
     86  CA        25.9900   33.6870   22.7500 C.3   123  HIS123      0.1621
     87  C         26.3600   35.1700   22.6750 C.2   123  HIS123      0.2264
     88  O         26.9830   35.6080   21.7140 O.2   123  HIS123     -0.2867
     89  CB        27.1050   32.9280   23.4460 C.3   123  HIS123      0.0745
     90  CG        26.6600   31.6250   24.0200 C.ar  123  HIS123      0.0817
     91  ND1       27.4600   30.5110   24.0950 N.ar  123  HIS123     -0.2268
     92  CD2       25.4930   31.2850   24.6270 C.ar  123  HIS123      0.1154
     93  CE1       26.7790   29.5530   24.7390 C.ar  123  HIS123      0.1986
     94  NE2       25.5790   29.9670   25.0720 N.ar  123  HIS123     -0.2212
     95  N         20.3550   37.6900   28.3350 N.3   130  LEU130     -0.1245
     96  CA        19.8610   36.3270   28.5630 C.3   130  LEU130      0.1561
     97  C         20.7730   35.3460   27.8290 C.2   130  LEU130      0.2260
     98  O         21.0320   34.2510   28.3080 O.2   130  LEU130     -0.2867
     99  CB        18.4440   36.1840   28.0170 C.3   130  LEU130      0.0270
    100  CG        17.8400   34.7860   28.0630 C.3   130  LEU130      0.0019
    101  CD1       17.7820   34.3050   29.4950 C.3   130  LEU130      0.0001
    102  CD2       16.4700   34.8150   27.4530 C.3   130  LEU130      0.0001
    103  N         26.7300   33.4290   28.0840 N.3   133  PRO133     -0.2102
    104  CA        27.1250   32.0380   28.3850 C.3   133  PRO133      0.1504
    105  C         27.3140   31.6500   29.8540 C.2   133  PRO133      0.2576
    106  O         28.3460   31.0770   30.2190 O.2   133  PRO133     -0.2718
    107  CB        28.4170   31.8790   27.5780 C.3   133  PRO133      0.0282
    108  CG        29.0080   33.2470   27.6390 C.3   133  PRO133      0.0208
    109  CD        27.8110   34.1140   27.3540 C.3   133  PRO133      0.0893
    110  N         26.3280   31.9360   30.6960 N.am  134  ASN134     -0.1961
    111  CA        26.4190   31.5990   32.1180 C.3   134  ASN134      0.1819
    112  C         25.0430   31.7000   32.7230 C.2   134  ASN134      0.2621
    113  O         24.2250   32.4860   32.2610 O.2   134  ASN134     -0.2715
    114  CB        27.3850   32.5250   32.8710 C.3   134  ASN134      0.1195
    115  CG        27.5910   32.1170   34.3380 C.2   134  ASN134      0.2630
    116  OD1       27.6840   32.9800   35.2190 O.2   134  ASN134     -0.2716
    117  ND2       27.6800   30.8040   34.6070 N.am  134  ASN134     -0.0877
    118  N         24.7740   30.8630   33.7160 N.am  135  TYR135     -0.1974
    119  CA        23.4800   30.8810   34.3750 C.3   135  TYR135      0.1639
    120  C         23.5560   31.7390   35.6290 C.2   135  TYR135      0.2290
    121  O         24.4830   31.5950   36.4360 O.2   135  TYR135     -0.2864
    122  CB        23.0370   29.4660   34.7710 C.3   135  TYR135      0.0560
    123  CG        21.8010   29.4470   35.6490 C.ar  135  TYR135     -0.0198
    124  CD1       21.9050   29.5360   37.0390 C.ar  135  TYR135     -0.0009
    125  CD2       20.5300   29.3920   35.0870 C.ar  135  TYR135     -0.0009
    126  CE1       20.7690   29.5780   37.8480 C.ar  135  TYR135      0.0417
    127  CE2       19.3910   29.4340   35.8870 C.ar  135  TYR135      0.0417
    128  CZ        19.5160   29.5290   37.2630 C.ar  135  TYR135      0.1957
    129  OH        18.3820   29.5690   38.0580 O.3   135  TYR135     -0.2866
@<TRIPOS>BOND
     1    78    77    2
     2    77    76    1
     3    39    38    2
     4    38    37    1
     5    76    79    1
     6    76    75    1
     7    85    86    1
     8    79    80    1
     9    88    87    2
    10    81    80   ar
    11    81    83   ar
    12    37    40    1
    13    37    36    1
    14    80    82   ar
    15    87    86    1
    16    86    89    1
    17    83    84   ar
    18    69    68    2
    19    36    28   am
    20    89    90    1
    21    82    84   ar
    22    33    35   ar
    23    33    31   ar
    24    28    29    2
    25    28    27    1
    26    68    67    1
    27    35    34   ar
    28    90    91   ar
    29    90    92   ar
    30    91    93   ar
    31    31    30    1
    32    31    32   ar
    33    30    27    1
    34    92    94   ar
    35    34    32   ar
    36    93    94   ar
    37    59    58    2
    38    27    26    1
    39    67    70    1
    40    67    66    1
    41    74    72   ar
    42    70    71    1
    43    58    66   am
    44    58    57    1
    45    26    23   am
    46    72    71    1
    47    72    73   ar
    48    65    63   ar
    49    65    64   ar
    50    63    61   ar
    51    64    62   ar
    52    57    56    1
    53    57    60    1
    54   109   108    1
    55   109   103    1
    56    23    24    2
    57    23    22    1
    58   102   100    1
    59   107   108    1
    60   107   104    1
    61    61    62   ar
    62    61    60    1
    63    97    98    2
    64    97    96    1
    65    99   100    1
    66    99    96    1
    67   100   101    1
    68   103   104    1
    69    12    10    1
    70    95    96    1
    71   104   105    1
    72    22    25    1
    73    22    21    1
    74    52    51    2
    75    10     9    1
    76    11     9    1
    77    21    15   am
    78   105   106    2
    79   105   110   am
    80     9     6    1
    81    51    50    1
    82   110   111    1
    83    44    43    2
    84    15    16    2
    85    15    14    1
    86    54    53    1
    87    50    53    1
    88    50    49    1
    89     6     7    1
    90     6     5    1
    91    13     7   am
    92    13    14    1
    93    43    49   am
    94    43    42    1
    95     7     8    2
    96   111   112    1
    97   111   114    1
    98    53    55    1
    99    14    17    1
   100   113   112    2
   101     5     3   am
   102    17    18    1
   103   112   118   am
   104    42    41    1
   105    42    45    1
   106   114   115    1
   107     3     4    2
   108     3     2    1
   109   118   119    1
   110    48    46    1
   111    20    18    1
   112    45    46    1
   113    18    19    1
   114   115   117   am
   115   115   116    2
   116   119   122    1
   117   119   120    1
   118    46    47    1
   119     2     1    1
   120   122   123    1
   121   125   123   ar
   122   125   127   ar
   123   120   121    2
   124   123   124   ar
   125   127   128   ar
   126   124   126   ar
   127   128   126   ar
   128   128   129    1
