@<TRIPOS>MOLECULE
tmp/1jjbA00.pdb
 184 182 0 0 0
SMALL
GASTEIGER

@<TRIPOS>ATOM
      1  N         -7.3980   63.5760   66.3220 N.3    67  TYR67      -0.1241
      2  CA        -7.0070   63.7450   67.7120 C.3    67  TYR67       0.1605
      3  C         -6.4820   65.1700   67.8110 C.2    67  TYR67       0.2264
      4  O         -5.7680   65.6220   66.9190 O.2    67  TYR67      -0.2867
      5  CB        -5.8780   62.7750   68.0510 C.3    67  TYR67       0.0534
      6  CG        -5.1880   63.0670   69.3620 C.ar   67  TYR67      -0.0201
      7  CD1       -5.7160   62.6090   70.5720 C.ar   67  TYR67      -0.0009
      8  CD2       -4.0010   63.7990   69.3950 C.ar   67  TYR67      -0.0009
      9  CE1       -5.0730   62.8710   71.7820 C.ar   67  TYR67       0.0417
     10  CE2       -3.3530   64.0690   70.5970 C.ar   67  TYR67       0.0417
     11  CZ        -3.8940   63.6010   71.7840 C.ar   67  TYR67       0.1957
     12  OH        -3.2530   63.8620   72.9730 O.3    67  TYR67      -0.2866
     13  N         -4.2310   67.8150   70.0410 N.3    69  ASP69      -0.1239
     14  CA        -3.2520   67.9200   71.1170 C.3    69  ASP69       0.1674
     15  C         -3.6190   68.9950   72.1330 C.2    69  ASP69       0.2266
     16  O         -3.7170   70.1660   71.7930 O.2    69  ASP69      -0.2867
     17  CB        -1.8700   68.1920   70.5270 C.3    69  ASP69       0.1410
     18  CG        -0.8360   68.5240   71.5830 C.2    69  ASP69       0.3668
     19  OD1       -0.9780   68.0690   72.7360 O.co2  69  ASP69      -0.2456
     20  OD2        0.1330   69.2330   71.2480 O.co2  69  ASP69      -0.2456
     21  N          2.4500   74.2730   70.3400 N.3    78  SER78      -0.1217
     22  CA         1.6980   73.0650   70.0220 C.3    78  SER78       0.1889
     23  C          0.3780   73.3300   69.3010 C.2    78  SER78       0.2288
     24  O         -0.0310   72.5470   68.4480 O.2    78  SER78      -0.2866
     25  CB         1.4330   72.2580   71.2980 C.3    78  SER78       0.2089
     26  OG         0.7910   73.0530   72.2760 O.3    78  SER78      -0.2183
     27  N         -0.3200   73.5400   65.4080 N.3    81  TRP81      -0.1241
     28  CA        -0.4740   72.3070   64.6440 C.3    81  TRP81       0.1605
     29  C         -1.8910   71.7370   64.7040 C.2    81  TRP81       0.2264
     30  O         -2.2520   70.8920   63.8890 O.2    81  TRP81      -0.2867
     31  CB         0.5260   71.2480   65.1290 C.3    81  TRP81       0.0550
     32  CG         1.9610   71.7010   65.0690 C.ar   81  TRP81       0.0003
     33  CD1        2.7570   72.0440   66.1240 C.ar   81  TRP81       0.0946
     34  CD2        2.7590   71.8870   63.8890 C.ar   81  TRP81       0.0152
     35  NE1        3.9980   72.4330   65.6760 N.ar   81  TRP81      -0.2442
     36  CE2        4.0270   72.3460   64.3090 C.ar   81  TRP81       0.0810
     37  CE3        2.5240   71.7110   62.5180 C.ar   81  TRP81       0.0012
     38  CZ2        5.0590   72.6330   63.4070 C.ar   81  TRP81       0.0191
     39  CZ3        3.5510   71.9970   61.6190 C.ar   81  TRP81       0.0001
     40  CH2        4.8020   72.4530   62.0700 C.ar   81  TRP81       0.0015
     41  N          1.7880   66.6630   57.0820 N.3   114  GLY114     -0.1210
     42  CA         2.1840   65.5450   57.9150 C.3   114  GLY114      0.1956
     43  C          1.2950   65.5000   59.1440 C.2   114  GLY114      0.2612
     44  O          0.2710   66.1890   59.2040 O.2   114  GLY114     -0.2717
     45  N          1.6890   64.6980   60.1270 N.am  115  GLY115     -0.1956
     46  CA         0.9100   64.5640   61.3430 C.3   115  GLY115      0.1869
     47  C          0.7730   63.1070   61.7680 C.2   115  GLY115      0.2309
     48  O         -0.2300   62.7260   62.3740 O.2   115  GLY115     -0.2863
     49  N         -2.2480   60.5160   61.7340 N.3   118  TYR118     -0.1241
     50  CA        -3.3490   60.5500   62.6980 C.3   118  TYR118      0.1605
     51  C         -3.8920   61.9590   62.8870 C.2   118  TYR118      0.2264
     52  O         -4.8750   62.1630   63.6050 O.2   118  TYR118     -0.2867
     53  CB        -2.8920   60.0060   64.0570 C.3   118  TYR118      0.0534
     54  CG        -1.9900   60.9450   64.8300 C.ar  118  TYR118     -0.0201
     55  CD1       -2.5250   61.9670   65.6220 C.ar  118  TYR118     -0.0009
     56  CD2       -0.6020   60.8260   64.7540 C.ar  118  TYR118     -0.0009
     57  CE1       -1.6960   62.8460   66.3200 C.ar  118  TYR118      0.0417
     58  CE2        0.2340   61.6930   65.4410 C.ar  118  TYR118      0.0417
     59  CZ        -0.3170   62.7010   66.2230 C.ar  118  TYR118      0.1957
     60  OH         0.5160   63.5570   66.9110 O.3   118  TYR118     -0.2866
     61  N          1.2260   76.7180   56.7140 N.3   127  TYR127     -0.1241
     62  CA         1.0990   76.1450   55.3740 C.3   127  TYR127      0.1605
     63  C          0.5040   77.1420   54.3800 C.2   127  TYR127      0.2264
     64  O          0.1820   76.7680   53.2500 O.2   127  TYR127     -0.2867
     65  CB         0.2180   74.8840   55.3720 C.3   127  TYR127      0.0534
     66  CG         0.6680   73.7490   56.2720 C.ar  127  TYR127     -0.0201
     67  CD1        2.0040   73.6100   56.6620 C.ar  127  TYR127     -0.0009
     68  CD2       -0.2500   72.7960   56.7180 C.ar  127  TYR127     -0.0009
     69  CE1        2.4100   72.5460   57.4770 C.ar  127  TYR127      0.0417
     70  CE2        0.1420   71.7320   57.5260 C.ar  127  TYR127      0.0417
     71  CZ         1.4680   71.6100   57.9020 C.ar  127  TYR127      0.1957
     72  OH         1.8420   70.5440   58.6850 O.3   127  TYR127     -0.2866
     73  N          5.9570   67.0400   54.4900 N.3   196  GLU196     -0.1231
     74  CA         6.8390   66.8520   55.6280 C.3   196  GLU196      0.1699
     75  C          6.3290   65.7540   56.5600 C.2   196  GLU196      0.2592
     76  O          5.1210   65.5890   56.7490 O.2   196  GLU196     -0.2718
     77  CB         6.9820   68.1870   56.3740 C.3   196  GLU196      0.0402
     78  CG         7.9290   68.1830   57.5620 C.3   196  GLU196      0.1161
     79  CD         7.2570   67.7280   58.8370 C.2   196  GLU196      0.3649
     80  OE1        6.0090   67.6540   58.8490 O.co2 196  GLU196     -0.2457
     81  OE2        7.9690   67.4560   59.8300 O.co2 196  GLU196     -0.2457
     82  N          7.2650   65.0030   57.1320 N.am  197  SER197     -0.1952
     83  CA         6.9380   63.9180   58.0450 C.3   197  SER197      0.1924
     84  C          6.0250   62.9030   57.3360 C.2   197  SER197      0.2314
     85  O          6.3900   62.3800   56.2840 O.2   197  SER197     -0.2863
     86  CB         6.2700   64.4870   59.2940 C.3   197  SER197      0.2116
     87  OG         6.4260   63.5930   60.3840 O.3   197  SER197     -0.2180
     88  N        -11.8760   58.3380   67.9960 N.3   272  ILE272     -0.1231
     89  CA       -10.6940   59.0830   68.3990 C.3   272  ILE272      0.1692
     90  C        -10.3500   58.9240   69.8830 C.2   272  ILE272      0.2592
     91  O         -9.1790   58.9000   70.2450 O.2   272  ILE272     -0.2718
     92  CB       -10.8630   60.5810   68.0620 C.3   272  ILE272      0.0266
     93  CG1      -10.9790   60.7520   66.5470 C.3   272  ILE272      0.0019
     94  CG2       -9.6790   61.3900   68.5940 C.3   272  ILE272      0.0020
     95  CD1      -11.3170   62.1620   66.1160 C.3   272  ILE272      0.0001
     96  N        -11.3600   58.8060   70.7370 N.am  273  ASP273     -0.1974
     97  CA       -11.1150   58.6510   72.1710 C.3   273  ASP273      0.1709
     98  C        -10.3680   57.3720   72.5720 C.2   273  ASP273      0.2293
     99  O         -9.7510   57.3230   73.6390 O.2   273  ASP273     -0.2864
    100  CB       -12.4300   58.6950   72.9540 C.3   273  ASP273      0.1436
    101  CG       -12.9890   60.0930   73.0870 C.2   273  ASP273      0.3671
    102  OD1      -12.2170   61.0760   72.9770 O.co2 273  ASP273     -0.2456
    103  OD2      -14.2060   60.2060   73.3230 O.co2 273  ASP273     -0.2456
    104  N         -5.5970   55.4640   70.5110 N.3   276  TRP276     -0.1227
    105  CA        -4.2770   55.0920   70.9990 C.3   276  TRP276      0.1737
    106  C         -4.2230   53.8030   71.8100 C.2   276  TRP276      0.2595
    107  O         -3.1380   53.3320   72.1570 O.2   276  TRP276     -0.2718
    108  CB        -3.6820   56.2410   71.8210 C.3   276  TRP276      0.0564
    109  CG        -3.6040   57.5280   71.0620 C.ar  276  TRP276      0.0003
    110  CD1       -4.5660   58.4930   70.9860 C.ar  276  TRP276      0.0946
    111  CD2       -2.5260   57.9700   70.2280 C.ar  276  TRP276      0.0152
    112  NE1       -4.1550   59.5100   70.1560 N.ar  276  TRP276     -0.2442
    113  CE2       -2.9060   59.2140   69.6770 C.ar  276  TRP276      0.0810
    114  CE3       -1.2750   57.4350   69.8910 C.ar  276  TRP276      0.0012
    115  CZ2       -2.0760   59.9350   68.8050 C.ar  276  TRP276      0.0191
    116  CZ3       -0.4490   58.1510   69.0220 C.ar  276  TRP276      0.0001
    117  CH2       -0.8560   59.3870   68.4910 C.ar  276  TRP276      0.0015
    118  N         -5.3780   53.2130   72.1000 N.am  277  ASN277     -0.1974
    119  CA        -5.3900   51.9840   72.8860 C.3   277  ASN277      0.1688
    120  C         -5.0260   50.7250   72.0960 C.2   277  ASN277      0.2292
    121  O         -4.7490   49.6820   72.6840 O.2   277  ASN277     -0.2864
    122  CB        -6.7590   51.7880   73.5490 C.3   277  ASN277      0.1181
    123  CG        -7.1450   52.9530   74.4570 C.2   277  ASN277      0.2629
    124  OD1       -6.2820   53.6860   74.9500 O.2   277  ASN277     -0.2716
    125  ND2       -8.4470   53.1160   74.6950 N.am  277  ASN277     -0.0877
    126  N          2.1310   55.2390   65.5830 N.3   287  PHE287     -0.1241
    127  CA         0.7590   55.6880   65.4530 C.3   287  PHE287      0.1605
    128  C         -0.1360   54.5280   65.0650 C.2   287  PHE287      0.2264
    129  O          0.2750   53.6300   64.3360 O.2   287  PHE287     -0.2867
    130  CB         0.7180   56.8140   64.4200 C.3   287  PHE287      0.0534
    131  CG         1.8230   57.8140   64.6010 C.ar  287  PHE287     -0.0203
    132  CD1        1.8560   58.6360   65.7220 C.ar  287  PHE287     -0.0042
    133  CD2        2.8710   57.8870   63.6890 C.ar  287  PHE287     -0.0042
    134  CE1        2.9160   59.5130   65.9380 C.ar  287  PHE287     -0.0003
    135  CE2        3.9390   58.7630   63.8960 C.ar  287  PHE287     -0.0003
    136  CZ         3.9600   59.5750   65.0220 C.ar  287  PHE287     -0.0000
    137  N         10.6250   66.2840   69.9860 N.3   327  PHE327     -0.1227
    138  CA         9.1780   66.4240   70.1820 C.3   327  PHE327      0.1736
    139  C          8.5590   65.1890   70.8390 C.2   327  PHE327      0.2595
    140  O          7.7610   65.2880   71.7810 O.2   327  PHE327     -0.2718
    141  CB         8.4790   66.6340   68.8360 C.3   327  PHE327      0.0547
    142  CG         7.6090   67.8510   68.7800 C.ar  327  PHE327     -0.0202
    143  CD1        6.7230   68.1440   69.8140 C.ar  327  PHE327     -0.0042
    144  CD2        7.6650   68.7050   67.6830 C.ar  327  PHE327     -0.0042
    145  CE1        5.9030   69.2720   69.7590 C.ar  327  PHE327     -0.0003
    146  CE2        6.8520   69.8360   67.6140 C.ar  327  PHE327     -0.0003
    147  CZ         5.9660   70.1220   68.6560 C.ar  327  PHE327     -0.0000
    148  N          8.9410   64.0220   70.3300 N.am  328  PHE328     -0.1976
    149  CA         8.4040   62.7580   70.8040 C.3   328  PHE328      0.1639
    150  C          8.8770   62.3210   72.1780 C.2   328  PHE328      0.2290
    151  O          8.2040   61.5360   72.8460 O.2   328  PHE328     -0.2864
    152  CB         8.6660   61.6810   69.7450 C.3   328  PHE328      0.0560
    153  CG         8.1800   62.0770   68.3780 C.ar  328  PHE328     -0.0200
    154  CD1        8.9650   62.8830   67.5530 C.ar  328  PHE328     -0.0042
    155  CD2        6.8940   61.7380   67.9580 C.ar  328  PHE328     -0.0042
    156  CE1        8.4740   63.3550   66.3280 C.ar  328  PHE328     -0.0003
    157  CE2        6.3920   62.2020   66.7390 C.ar  328  PHE328     -0.0003
    158  CZ         7.1850   63.0150   65.9210 C.ar  328  PHE328     -0.0000
    159  N          6.8630   64.6490   74.7310 N.3   331  TYR331     -0.1241
    160  CA         5.5080   64.1510   74.9020 C.3   331  TYR331      0.1605
    161  C          5.3410   62.7650   75.5060 C.2   331  TYR331      0.2264
    162  O          4.2980   62.4870   76.0880 O.2   331  TYR331     -0.2867
    163  CB         4.7660   64.1900   73.5630 C.3   331  TYR331      0.0534
    164  CG         4.1840   65.5370   73.2210 C.ar  331  TYR331     -0.0201
    165  CD1        5.0050   66.6430   73.0220 C.ar  331  TYR331     -0.0009
    166  CD2        2.8030   65.7110   73.1120 C.ar  331  TYR331     -0.0009
    167  CE1        4.4680   67.8910   72.7270 C.ar  331  TYR331      0.0417
    168  CE2        2.2540   66.9570   72.8170 C.ar  331  TYR331      0.0417
    169  CZ         3.0930   68.0400   72.6280 C.ar  331  TYR331      0.1957
    170  OH         2.5650   69.2760   72.3670 O.3   331  TYR331     -0.2866
    171  N         11.4520   68.8310   64.8820 N.3   437  HIS437     -0.1226
    172  CA        10.7100   68.1510   63.8310 C.3   437  HIS437      0.1752
    173  C          9.6020   69.1050   63.3810 C.2   437  HIS437      0.2596
    174  O          8.8030   69.5590   64.1990 O.2   437  HIS437     -0.2718
    175  CB        10.0940   66.8730   64.4110 C.3   437  HIS437      0.0759
    176  CG         9.4380   65.9860   63.3980 C.ar  437  HIS437      0.0818
    177  ND1       10.1340   65.3890   62.3670 N.ar  437  HIS437     -0.2268
    178  CD2        8.1620   65.5430   63.2960 C.ar  437  HIS437      0.1154
    179  CE1        9.3160   64.6120   61.6780 C.ar  437  HIS437      0.1986
    180  NE2        8.1140   64.6870   62.2210 N.ar  437  HIS437     -0.2212
    181  N          9.5760   69.4260   62.0910 N.am  438  GLY438     -0.1957
    182  CA         8.5490   70.3090   61.5640 C.3   438  GLY438      0.1869
    183  C          8.8740   71.7930   61.5210 C.2   438  GLY438      0.2309
    184  O          8.0920   72.5810   60.9880 O.2   438  GLY438     -0.2863
@<TRIPOS>BOND
     1    64    63    2
     2    63    62    1
     3    73    74    1
     4    65    62    1
     5    65    66    1
     6    62    61    1
     7    74    77    1
     8    74    75    1
     9    66    67   ar
    10    66    68   ar
    11    85    84    2
    12    77    78    1
    13    75    76    2
    14    75    82   am
    15    67    69   ar
    16    68    70   ar
    17    41    42    1
    18    82    83    1
    19    84    83    1
    20    69    71   ar
    21    70    71   ar
    22    78    79    1
    23    71    72    1
    24    42    43    1
    25    83    86    1
    26    79    80   ar
    27    79    81   ar
    28    43    44    2
    29    43    45   am
    30    86    87    1
    31    45    46    1
    32   184   183    2
    33    46    47    1
    34   183   182    1
    35   182   181    1
    36    39    40   ar
    37    39    37   ar
    38   179   180   ar
    39   179   177   ar
    40    49    50    1
    41    47    48    2
    42    40    38   ar
    43   181   173   am
    44   180   178   ar
    45   177   176   ar
    46    37    34   ar
    47    50    51    1
    48    50    53    1
    49    51    52    2
    50   178   176   ar
    51   173   172    1
    52   173   174    2
    53   176   175    1
    54    38    36   ar
    55   133   135   ar
    56   133   131   ar
    57   172   175    1
    58   172   171    1
    59    34    36   ar
    60    34    32   ar
    61    30    29    2
    62   135   136   ar
    63    53    54    1
    64    36    35   ar
    65   129   128    2
    66   130   131    1
    67   130   127    1
    68   131   132   ar
    69    28    29    1
    70    28    31    1
    71    28    27    1
    72    56    54   ar
    73    56    58   ar
    74    54    55   ar
    75   136   134   ar
    76   128   127    1
    77    32    31    1
    78    32    33   ar
    79    58    59   ar
    80   127   126    1
    81    55    57   ar
    82    35    33   ar
    83   132   134   ar
    84   158   156   ar
    85   158   157   ar
    86    95    93    1
    87    59    57   ar
    88    59    60    1
    89     1     2    1
    90   156   154   ar
    91    93    92    1
    92   157   155   ar
    93     4     3    2
    94   154   153   ar
    95   146   144   ar
    96   146   147   ar
    97   144   142   ar
    98     2     3    1
    99     2     5    1
   100   155   153   ar
   101    88    89    1
   102     5     6    1
   103    92    89    1
   104    92    94    1
   105   153   152    1
   106    89    90    1
   107    24    23    2
   108   117   115   ar
   109   117   116   ar
   110   147   145   ar
   111   142   141    1
   112   142   143   ar
   113   115   113   ar
   114   141   138    1
   115   116   114   ar
   116    23    22    1
   117     6     8   ar
   118     6     7   ar
   119     8    10   ar
   120   113   112   ar
   121   113   111   ar
   122   152   149    1
   123   145   143   ar
   124    90    91    2
   125    90    96   am
   126   114   111   ar
   127   137   138    1
   128    22    21    1
   129    22    25    1
   130    13    14    1
   131   112   110   ar
   132   138   139    1
   133   111   109   ar
   134   148   149    1
   135   148   139   am
   136   104   105    1
   137    17    14    1
   138    17    18    1
   139     7     9   ar
   140    10    11   ar
   141    96    97    1
   142   149   150    1
   143   139   140    2
   144   110   109   ar
   145   105   106    1
   146   105   108    1
   147   109   108    1
   148    14    15    1
   149    20    18   ar
   150    25    26    1
   151    18    19   ar
   152     9    11   ar
   153    11    12    1
   154    16    15    2
   155   106   118   am
   156   106   107    2
   157   120   121    2
   158   120   119    1
   159   118   119    1
   160    97    98    1
   161    97   100    1
   162   150   151    2
   163   170   169    1
   164    98    99    2
   165   169   167   ar
   166   169   168   ar
   167   167   165   ar
   168   168   166   ar
   169   119   122    1
   170   100   101    1
   171   102   101   ar
   172   165   164   ar
   173   101   103   ar
   174   166   164   ar
   175   164   163    1
   176   122   123    1
   177   163   160    1
   178   123   125   am
   179   123   124    2
   180   159   160    1
   181   160   161    1
   182   161   162    2
