@<TRIPOS>MOLECULE
tmp/1jjeB00.pdb
 144 140 0 0 0
SMALL
GASTEIGER

@<TRIPOS>ATOM
      1  N         21.4800   -7.7720   22.6130 N.3    25  VAL25      -0.1231
      2  CA        22.6940   -7.6930   21.8270 C.3    25  VAL25       0.1692
      3  C         23.8900   -7.3740   22.7390 C.2    25  VAL25       0.2592
      4  O         23.8990   -6.3210   23.3800 O.2    25  VAL25      -0.2718
      5  CB        22.6290   -6.6310   20.7090 C.3    25  VAL25       0.0266
      6  CG1       23.9080   -6.6830   19.8800 C.3    25  VAL25       0.0020
      7  CG2       21.4190   -6.8230   19.8060 C.3    25  VAL25       0.0020
      8  N         24.8270   -8.3070   22.7370 N.am   26  ASN26      -0.1974
      9  CA        26.0560   -8.2290   23.5140 C.3    26  ASN26       0.1688
     10  C         25.8090   -7.6570   24.9010 C.2    26  ASN26       0.2292
     11  O         24.9890   -8.1300   25.6500 O.2    26  ASN26      -0.2864
     12  CB        27.0320   -7.1930   22.9250 C.3    26  ASN26       0.1181
     13  CG        27.5180   -7.3450   21.4820 C.2    26  ASN26       0.2629
     14  OD1       28.3040   -6.5170   21.0530 O.2    26  ASN26      -0.2716
     15  ND2       27.1860   -8.3250   20.6520 N.am   26  ASN26      -0.0877
     16  N         24.7440   -4.4050   25.2280 N.3    28  TRP28      -0.1241
     17  CA        23.8660   -3.2280   25.2090 C.3    28  TRP28       0.1605
     18  C         22.4680   -3.5190   25.7300 C.2    28  TRP28       0.2264
     19  O         21.6320   -2.6140   25.7310 O.2    28  TRP28      -0.2867
     20  CB        23.7330   -2.6800   23.7920 C.3    28  TRP28       0.0550
     21  CG        24.9510   -2.0020   23.2490 C.ar   28  TRP28       0.0003
     22  CD1       25.5490   -0.8290   23.5820 C.ar   28  TRP28       0.0946
     23  CD2       25.7360   -2.5670   22.1850 C.ar   28  TRP28       0.0152
     24  NE1       26.6640   -0.6240   22.7910 N.ar   28  TRP28      -0.2442
     25  CE2       26.7910   -1.6800   21.9270 C.ar   28  TRP28       0.0810
     26  CE3       25.6110   -3.7450   21.4520 C.ar   28  TRP28       0.0012
     27  CZ2       27.7270   -1.9540   20.9380 C.ar   28  TRP28       0.0191
     28  CZ3       26.5530   -4.0040   20.4710 C.ar   28  TRP28       0.0001
     29  CH2       27.6010   -3.1120   20.2260 C.ar   28  TRP28       0.0015
     30  N         18.0190   -4.0820   22.2820 N.3    31  VAL31      -0.1245
     31  CA        18.2550   -3.0420   21.2650 C.3    31  VAL31       0.1561
     32  C         17.0510   -2.9220   20.3390 C.2    31  VAL31       0.2260
     33  O         16.6490   -3.8710   19.6660 O.2    31  VAL31      -0.2867
     34  CB        19.5320   -3.3340   20.4560 C.3    31  VAL31       0.0252
     35  CG1       19.6400   -2.4060   19.2560 C.3    31  VAL31       0.0019
     36  CG2       20.7840   -3.1890   21.3270 C.3    31  VAL31       0.0019
     37  N         15.2500   -8.1550   13.1310 N.3    51  PHE51      -0.1241
     38  CA        16.3760   -8.9720   13.5610 C.3    51  PHE51       0.1605
     39  C         16.2040  -10.4560   13.2200 C.2    51  PHE51       0.2264
     40  O         17.1940  -11.1780   13.0830 O.2    51  PHE51      -0.2867
     41  CB        16.5620   -8.9210   15.0740 C.3    51  PHE51       0.0534
     42  CG        17.1960   -7.7460   15.7760 C.ar   51  PHE51      -0.0203
     43  CD1       18.5670   -7.5870   15.8540 C.ar   51  PHE51      -0.0042
     44  CD2       16.3890   -6.7830   16.3750 C.ar   51  PHE51      -0.0042
     45  CE1       19.1370   -6.5150   16.5150 C.ar   51  PHE51      -0.0003
     46  CE2       16.9440   -5.7200   17.0640 C.ar   51  PHE51      -0.0003
     47  CZ        18.3190   -5.5840   17.1380 C.ar   51  PHE51      -0.0000
     48  N         22.6920   -2.8590    5.2870 N.3    77  HIS77      -0.1241
     49  CA        24.0830   -3.2730    5.5530 C.3    77  HIS77       0.1621
     50  C         24.0790   -4.7190    6.0540 C.2    77  HIS77       0.2264
     51  O         22.9990   -5.2710    6.2820 O.2    77  HIS77      -0.2867
     52  CB        24.8120   -2.3500    6.5220 C.3    77  HIS77       0.0745
     53  CG        24.5000   -2.4940    7.9790 C.ar   77  HIS77       0.0817
     54  ND1       23.2260   -2.6480    8.4940 N.ar   77  HIS77      -0.2268
     55  CD2       25.3170   -2.4930    9.0630 C.ar   77  HIS77       0.1154
     56  CE1       23.2780   -2.7390    9.8240 C.ar   77  HIS77       0.1986
     57  NE2       24.5520   -2.6470   10.1930 N.ar   77  HIS77      -0.2212
     58  N         24.9560   -6.3710    8.8650 N.3    79  HIS79      -0.1226
     59  CA        24.6170   -6.8760   10.2120 C.3    79  HIS79       0.1752
     60  C         23.2000   -7.4290   10.2410 C.2    79  HIS79       0.2597
     61  O         22.3370   -6.9630    9.4960 O.2    79  HIS79      -0.2718
     62  CB        24.8090   -5.7800   11.2510 C.3    79  HIS79       0.0759
     63  CG        26.2330   -5.4080   11.5230 C.ar   79  HIS79       0.0818
     64  ND1       26.6170   -4.1830   12.0350 N.ar   79  HIS79      -0.2268
     65  CD2       27.3710   -6.1410   11.3600 C.ar   79  HIS79       0.1154
     66  CE1       27.9360   -4.1630   12.1660 C.ar   79  HIS79       0.1986
     67  NE2       28.4090   -5.3400   11.7690 N.ar   79  HIS79      -0.2212
     68  N         22.9520   -8.4360   11.0760 N.am   80  SER80      -0.1938
     69  CA        21.6380   -9.0680   11.1140 C.3    80  SER80       0.2055
     70  C         20.5250   -8.1620   11.6050 C.2    80  SER80       0.2643
     71  O         19.3410   -8.5290   11.4560 O.2    80  SER80      -0.2714
     72  CB        21.6920  -10.3470   11.9770 C.3    80  SER80       0.2130
     73  OG        22.0250  -10.0230   13.3090 O.3    80  SER80      -0.2179
     74  N         20.7820   -6.9860   12.1770 N.am   81  ASP81      -0.1971
     75  CA        19.6220   -6.1230   12.4840 C.3    81  ASP81       0.1709
     76  C         19.0640   -5.5250   11.1910 C.2    81  ASP81       0.2293
     77  O         17.9930   -4.9000   11.1760 O.2    81  ASP81      -0.2864
     78  CB        19.9910   -5.0710   13.5230 C.3    81  ASP81       0.1436
     79  CG        21.0710   -4.0980   13.1330 C.2    81  ASP81       0.3671
     80  OD1       21.8680   -4.4170   12.2250 O.co2  81  ASP81      -0.2456
     81  OD2       21.1720   -2.9790   13.6830 O.co2  81  ASP81      -0.2456
     82  N         29.6260    3.2620    9.4860 N.3   139  HIS139     -0.1241
     83  CA        29.2260    2.2760   10.4760 C.3   139  HIS139      0.1621
     84  C         29.8650    0.9410   10.1220 C.2   139  HIS139      0.2264
     85  O         30.3620    0.2520   11.0080 O.2   139  HIS139     -0.2867
     86  CB        27.7060    2.1320   10.5220 C.3   139  HIS139      0.0745
     87  CG        27.2350    0.9680   11.3330 C.ar  139  HIS139      0.0817
     88  ND1       27.5170    0.8640   12.6820 N.ar  139  HIS139     -0.2268
     89  CD2       26.5260   -0.1310   11.0180 C.ar  139  HIS139      0.1154
     90  CE1       26.9920   -0.2510   13.1690 C.ar  139  HIS139      0.1986
     91  NE2       26.3780   -0.8830   12.2040 N.ar  139  HIS139     -0.2212
     92  N         22.0360    2.3190   10.1070 N.3   158  CYS158     -0.1235
     93  CA        22.8970    2.4500   11.2870 C.3   158  CYS158      0.1677
     94  C         24.0260    3.4500   11.0640 C.2   158  CYS158      0.2270
     95  O         24.8670    3.6650   11.9470 O.2   158  CYS158     -0.2867
     96  CB        23.4510    1.0850   11.7050 C.3   158  CYS158      0.0956
     97  SG        22.1840   -0.1920   11.7860 S.3   158  CYS158     -0.0801
     98  N         23.7410    8.2440   13.3740 N.3   161  LYS161     -0.1245
     99  CA        24.1200    8.0870   14.7730 C.3   161  LYS161      0.1561
    100  C         24.3180    9.4510   15.4250 C.2   161  LYS161      0.2260
    101  O         25.4190    9.9390   15.6460 O.2   161  LYS161     -0.2867
    102  CB        25.4040    7.2560   14.8450 C.3   161  LYS161      0.0271
    103  CG        25.1700    5.7980   14.4450 C.3   161  LYS161      0.0035
    104  CD        24.4230    5.0930   15.5760 C.3   161  LYS161      0.0206
    105  CE        24.2440    3.6250   15.2740 C.3   161  LYS161      0.1093
    106  NZ        25.4930    2.9870   14.7640 N.3   161  LYS161     -0.1314
    107  N         23.6650   10.5820   18.4560 N.3   163  TYR163     -0.1227
    108  CA        23.9500   10.7470   19.8880 C.3   163  TYR163      0.1736
    109  C         25.1590    9.9220   20.3070 C.2   163  TYR163      0.2596
    110  O         25.4670    9.7130   21.4840 O.2   163  TYR163     -0.2718
    111  CB        22.6820   10.4070   20.6890 C.3   163  TYR163      0.0548
    112  CG        21.4200   10.9890   20.0700 C.ar  163  TYR163     -0.0200
    113  CD1       21.3030   12.3530   19.8180 C.ar  163  TYR163     -0.0009
    114  CD2       20.3370   10.1810   19.7320 C.ar  163  TYR163     -0.0009
    115  CE1       20.1610   12.8800   19.2570 C.ar  163  TYR163      0.0417
    116  CE2       19.1820   10.7040   19.1640 C.ar  163  TYR163      0.0417
    117  CZ        19.1010   12.0570   18.9310 C.ar  163  TYR163      0.1957
    118  OH        17.9780   12.6080   18.3650 O.3   163  TYR163     -0.2866
    119  N         25.9270    9.4190   19.3310 N.am  164  GLY164     -0.1957
    120  CA        27.0150    8.5020   19.6470 C.3   164  GLY164      0.1869
    121  C         27.0040    7.4170   18.5780 C.2   164  GLY164      0.2309
    122  O         25.9360    7.1220   18.0600 O.2   164  GLY164     -0.2863
    123  N         27.7440    4.1100   18.5010 N.3   166  GLY166     -0.1210
    124  CA        27.3110    2.7220   18.6170 C.3   166  GLY166      0.1956
    125  C         28.4190    1.7000   18.4840 C.2   166  GLY166      0.2611
    126  O         29.5450    1.8910   18.9540 O.2   166  GLY166     -0.2717
    127  N         28.1010    0.5820   17.8350 N.am  167  ASN167     -0.1974
    128  CA        28.9770   -0.5620   17.6830 C.3   167  ASN167      0.1688
    129  C         30.0970   -0.2700   16.6880 C.2   167  ASN167      0.2292
    130  O         29.8030   -0.1420   15.4850 O.2   167  ASN167     -0.2864
    131  CB        28.1780   -1.7690   17.1900 C.3   167  ASN167      0.1181
    132  CG        29.0620   -2.8820   16.6910 C.2   167  ASN167      0.2629
    133  OD1       30.1960   -3.0260   17.1570 O.2   167  ASN167     -0.2716
    134  ND2       28.5830   -3.6900   15.7610 N.am  167  ASN167     -0.0877
    135  N         18.4360    3.1850   15.1460 N.3   197  HIS197     -0.1241
    136  CA        18.2780    2.8810   16.5750 C.3   197  HIS197      0.1621
    137  C         17.7980    4.0570   17.4070 C.2   197  HIS197      0.2264
    138  O         17.4350    3.8960   18.5760 O.2   197  HIS197     -0.2867
    139  CB        19.6200    2.3450   17.0920 C.3   197  HIS197      0.0745
    140  CG        20.0870    1.0900   16.4330 C.ar  197  HIS197      0.0817
    141  ND1       19.4700   -0.1290   16.6310 N.ar  197  HIS197     -0.2268
    142  CD2       21.1220    0.8570   15.5830 C.ar  197  HIS197      0.1154
    143  CE1       20.1060   -1.0540   15.9250 C.ar  197  HIS197      0.1986
    144  NE2       21.1080   -0.4830   15.2790 N.ar  197  HIS197     -0.2212
@<TRIPOS>BOND
     1    48    49    1
     2    49    50    1
     3    49    52    1
     4    50    51    2
     5    52    53    1
     6    53    54   ar
     7    53    55   ar
     8    54    56   ar
     9    58    59    1
    10    55    57   ar
    11    82    83    1
    12    61    60    2
    13    56    57   ar
    14    92    93    1
    15    84    83    1
    16    84    85    2
    17    59    60    1
    18    59    62    1
    19    60    68   am
    20    83    86    1
    21    86    87    1
    22    89    87   ar
    23    89    91   ar
    24    94    93    1
    25    94    95    2
    26    68    69    1
    27    69    70    1
    28    69    72    1
    29    77    76    2
    30    76    75    1
    31    62    63    1
    32    93    96    1
    33    87    88   ar
    34    65    63   ar
    35    65    67   ar
    36    71    70    2
    37    63    64   ar
    38    70    74   am
    39    96    97    1
    40    67    66   ar
    41    72    73    1
    42    64    66   ar
    43    74    75    1
    44    91    90   ar
    45    80    79   ar
    46    75    78    1
    47    88    90   ar
    48    40    39    2
    49    37    38    1
    50    79    78    1
    51    79    81   ar
    52    39    38    1
    53    98    99    1
    54    38    41    1
    55   103   102    1
    56   103   104    1
    57   106   105    1
    58    99   102    1
    59    99   100    1
    60    41    42    1
    61   135   136    1
    62   105   104    1
    63   144   142   ar
    64   144   143   ar
    65   100   101    2
    66   130   129    2
    67   142   140   ar
    68   134   132   am
    69    42    43   ar
    70    42    44   ar
    71    43    45   ar
    72   143   141   ar
    73    44    46   ar
    74   140   141   ar
    75   140   139    1
    76    45    47   ar
    77   136   139    1
    78   136   137    1
    79   129   128    1
    80   132   133    2
    81   132   131    1
    82    46    47   ar
    83   131   128    1
    84   137   138    2
    85   128   127    1
    86   127   125   am
    87   122   121    2
    88   118   117    1
    89   107   108    1
    90   125   124    1
    91   125   126    2
    92   123   124    1
    93   121   120    1
    94   117   116   ar
    95   117   115   ar
    96   116   114   ar
    97    35    34    1
    98   115   113   ar
    99   119   120    1
   100   119   109   am
   101    33    32    2
   102   114   112   ar
   103     7     5    1
   104   113   112   ar
   105     6     5    1
   106   108   109    1
   107   108   111    1
   108   112   111    1
   109    29    28   ar
   110    29    27   ar
   111   109   110    2
   112    32    31    1
   113    34    31    1
   114    34    36    1
   115    28    26   ar
   116    15    13   am
   117     5     2    1
   118    27    25   ar
   119    14    13    2
   120    31    30    1
   121    26    23   ar
   122    13    12    1
   123     2     1    1
   124     2     3    1
   125    25    23   ar
   126    25    24   ar
   127    23    21   ar
   128     8     3   am
   129     8     9    1
   130     3     4    2
   131    24    22   ar
   132    12     9    1
   133    21    22   ar
   134    21    20    1
   135     9    10    1
   136    20    17    1
   137    10    11    2
   138    17    16    1
   139    17    18    1
   140    18    19    2
