@<TRIPOS>MOLECULE
tmp/1jjiD00.pdb
 131 124 0 0 0
SMALL
GASTEIGER

@<TRIPOS>ATOM
      1  N         31.9950  100.9250   25.4880 N.3    88  GLY88      -0.1210
      2  CA        30.7450  101.4480   25.9870 C.3    88  GLY88       0.1956
      3  C         29.5460  100.5040   25.9910 C.2    88  GLY88       0.2612
      4  O         28.4220  100.9320   25.7180 O.2    88  GLY88      -0.2717
      5  N         29.7870   99.2350   26.3120 N.am   89  GLY89      -0.1942
      6  CA        28.7370   98.2300   26.3670 C.3    89  GLY89       0.2014
      7  C         27.8160   98.0660   25.1660 C.2    89  GLY89       0.2638
      8  O         26.8170   97.3810   25.2820 O.2    89  GLY89      -0.2714
      9  N         28.1630   98.6520   24.0190 N.am   90  PHE90      -0.1973
     10  CA        27.3250   98.5940   22.8150 C.3    90  PHE90       0.1639
     11  C         26.1600   99.6320   22.9060 C.2    90  PHE90       0.2290
     12  O         25.3400   99.7780   21.9700 O.2    90  PHE90      -0.2864
     13  CB        26.7180   97.1900   22.6380 C.3    90  PHE90       0.0560
     14  CG        27.7430   96.1100   22.3820 C.ar   90  PHE90      -0.0200
     15  CD1       28.3970   96.0270   21.1550 C.ar   90  PHE90      -0.0042
     16  CD2       28.0920   95.2210   23.3850 C.ar   90  PHE90      -0.0042
     17  CE1       29.3880   95.0750   20.9400 C.ar   90  PHE90      -0.0003
     18  CE2       29.0860   94.2650   23.1720 C.ar   90  PHE90      -0.0003
     19  CZ        29.7300   94.1960   21.9530 C.ar   90  PHE90      -0.0000
     20  N         36.9760   96.9530   25.0120 N.3   160  SER160     -0.1202
     21  CA        35.7240   96.3870   25.5250 C.3   160  SER160      0.2020
     22  C         34.8030   95.9600   24.3640 C.2   160  SER160      0.2618
     23  O         35.1550   95.1330   23.5180 O.2   160  SER160     -0.2717
     24  CB        34.9850   97.4570   26.3620 C.3   160  SER160      0.2103
     25  OG        34.3190   97.0010   27.5840 O.3   160  SER160     -0.2182
     26  N         33.6020   96.5100   24.3600 N.am  161  ALA161     -0.1979
     27  CA        32.6540   96.1990   23.3150 C.3   161  ALA161      0.1597
     28  C         33.3050   96.4730   21.9610 C.2   161  ALA161      0.2287
     29  O         32.9840   95.8340   20.9610 O.2   161  ALA161     -0.2864
     30  CB        31.3810   97.0620   23.4890 C.3   161  ALA161      0.0319
     31  N         35.1010   91.7090   25.1380 N.3   190  VAL190     -0.1245
     32  CA        34.0200   90.8150   25.4810 C.3   190  VAL190      0.1561
     33  C         33.8680   89.9420   24.2370 C.2   190  VAL190      0.2260
     34  O         33.6460   90.4500   23.1160 O.2   190  VAL190     -0.2867
     35  CB        32.6890   91.5830   25.7200 C.3   190  VAL190      0.0252
     36  CG1       31.4990   90.6210   25.7130 C.3   190  VAL190      0.0019
     37  CG2       32.7530   92.2740   27.0510 C.3   190  VAL190      0.0019
     38  N         32.2670   86.7430   24.7750 N.3   192  ASN192     -0.1225
     39  CA        31.3080   85.7480   25.2380 C.3   192  ASN192      0.1785
     40  C         30.0720   86.3370   25.9850 C.2   192  ASN192      0.2597
     41  O         30.1970   87.0000   27.0190 O.2   192  ASN192     -0.2718
     42  CB        32.0820   84.7600   26.1280 C.3   192  ASN192      0.1169
     43  CG        31.2420   84.1640   27.2390 C.2   192  ASN192      0.2627
     44  OD1       30.1890   83.5800   26.9940 O.2   192  ASN192     -0.2716
     45  ND2       31.7230   84.2940   28.4760 N.am  192  ASN192     -0.0877
     46  N         28.8900   86.0800   25.4400 N.am  193  PHE193     -0.1976
     47  CA        27.6600   86.5420   26.0650 C.3   193  PHE193      0.1639
     48  C         26.8030   85.3160   26.4980 C.2   193  PHE193      0.2290
     49  O         25.6130   85.4620   26.7510 O.2   193  PHE193     -0.2864
     50  CB        26.8130   87.3790   25.0820 C.3   193  PHE193      0.0560
     51  CG        27.5200   88.5950   24.4890 C.ar  193  PHE193     -0.0200
     52  CD1       28.2010   88.5150   23.2740 C.ar  193  PHE193     -0.0042
     53  CD2       27.4230   89.8340   25.1050 C.ar  193  PHE193     -0.0042
     54  CE1       28.7630   89.6640   22.7000 C.ar  193  PHE193     -0.0003
     55  CE2       27.9760   90.9770   24.5480 C.ar  193  PHE193     -0.0003
     56  CZ        28.6400   90.9010   23.3530 C.ar  193  PHE193     -0.0000
     57  N         32.9650   98.0490   36.3480 N.3   210  LEU210     -0.1245
     58  CA        32.2380   96.8950   35.8130 C.3   210  LEU210      0.1561
     59  C         31.7620   95.8740   36.8610 C.2   210  LEU210      0.2260
     60  O         32.4640   95.5660   37.8170 O.2   210  LEU210     -0.2867
     61  CB        33.1040   96.1520   34.7890 C.3   210  LEU210      0.0270
     62  CG        32.6940   96.1350   33.3160 C.3   210  LEU210      0.0019
     63  CD1       33.4330   95.0040   32.6130 C.3   210  LEU210      0.0001
     64  CD2       31.2030   95.9360   33.1850 C.3   210  LEU210      0.0001
     65  N         28.2560   92.5620   37.2530 N.3   212  GLN212     -0.1245
     66  CA        27.2460   91.8080   36.5120 C.3   212  GLN212      0.1566
     67  C         25.9870   92.6320   36.2690 C.2   212  GLN212      0.2260
     68  O         25.3000   92.4430   35.2640 O.2   212  GLN212     -0.2867
     69  CB        26.8740   90.5070   37.2360 C.3   212  GLN212      0.0367
     70  CG        27.6250   89.2820   36.7210 C.3   212  GLN212      0.0905
     71  CD        27.3320   88.9700   35.2570 C.2   212  GLN212      0.2608
     72  OE1       28.0660   88.2090   34.6210 O.2   212  GLN212     -0.2717
     73  NE2       26.2530   89.5450   34.7200 N.am  212  GLN212     -0.0878
     74  N         26.5710   94.7630   33.2470 N.3   215  MET215     -0.1230
     75  CA        26.8480   93.8440   32.1520 C.3   215  MET215      0.1702
     76  C         25.5570   93.1910   31.6380 C.2   215  MET215      0.2593
     77  O         25.3230   93.1170   30.4210 O.2   215  MET215     -0.2718
     78  CB        27.8670   92.7680   32.5850 C.3   215  MET215      0.0401
     79  CG        29.2850   93.3170   32.7700 C.3   215  MET215      0.0596
     80  SD        30.5440   92.0650   32.4500 S.3   215  MET215     -0.1393
     81  CE        30.9310   91.6420   34.0430 C.3   215  MET215      0.0692
     82  N         24.7290   92.7160   32.5720 N.am  216  SER216     -0.1952
     83  CA        23.4540   92.1030   32.2260 C.3   216  SER216      0.1924
     84  C         22.5930   93.1520   31.4860 C.2   216  SER216      0.2314
     85  O         21.9450   92.8550   30.4820 O.2   216  SER216     -0.2863
     86  CB        22.7250   91.6540   33.4950 C.3   216  SER216      0.2116
     87  OG        23.4870   90.7490   34.2880 O.3   216  SER216     -0.2180
     88  N         23.5570   95.7860   29.6760 N.3   218  PHE218     -0.1227
     89  CA        24.0940   96.0340   28.3300 C.3   218  PHE218      0.1736
     90  C         23.5910   95.0750   27.2200 C.2   218  PHE218      0.2596
     91  O         23.2440   95.5260   26.1200 O.2   218  PHE218     -0.2718
     92  CB        25.6250   96.0050   28.3520 C.3   218  PHE218      0.0547
     93  CG        26.2570   97.2410   28.9390 C.ar  218  PHE218     -0.0202
     94  CD1       25.7910   98.5000   28.6040 C.ar  218  PHE218     -0.0042
     95  CD2       27.3640   97.1400   29.7690 C.ar  218  PHE218     -0.0042
     96  CE1       26.4190   99.6400   29.0740 C.ar  218  PHE218     -0.0003
     97  CE2       28.0060   98.2740   30.2480 C.ar  218  PHE218     -0.0003
     98  CZ        27.5330   99.5300   29.9010 C.ar  218  PHE218     -0.0000
     99  N         23.5760   93.7700   27.4870 N.am  219  SER219     -0.1952
    100  CA        23.1160   92.8050   26.4780 C.3   219  SER219      0.1924
    101  C         21.6320   92.9540   26.2150 C.2   219  SER219      0.2314
    102  O         21.1790   92.8780   25.0630 O.2   219  SER219     -0.2863
    103  CB        23.3900   91.3670   26.9220 C.3   219  SER219      0.2116
    104  OG        23.3970   91.2600   28.3330 O.3   219  SER219     -0.2180
    105  N         22.5510   85.8560   20.9450 N.3   229  LYS229     -0.1245
    106  CA        23.7140   85.7090   21.8180 C.3   229  LYS229      0.1561
    107  C         24.6830   84.6430   21.3000 C.2   229  LYS229      0.2260
    108  O         25.8950   84.7850   21.4250 O.2   229  LYS229     -0.2867
    109  CB        23.2930   85.3240   23.2390 C.3   229  LYS229      0.0271
    110  CG        22.5970   86.4330   23.9990 C.3   229  LYS229      0.0035
    111  CD        22.4920   86.1170   25.4750 C.3   229  LYS229      0.0206
    112  CE        21.8520   87.2730   26.2090 C.3   229  LYS229      0.1093
    113  NZ        21.7610   87.0290   27.6770 N.3   229  LYS229     -0.1314
    114  N         36.1130   90.4100   32.6620 N.3   257  LEU257     -0.1245
    115  CA        36.2660   89.9580   31.2840 C.3   257  LEU257      0.1561
    116  C         37.6520   89.3870   30.9600 C.2   257  LEU257      0.2260
    117  O         37.9090   89.0210   29.8270 O.2   257  LEU257     -0.2867
    118  CB        35.9580   91.1070   30.3200 C.3   257  LEU257      0.0270
    119  CG        34.5160   91.5970   30.3710 C.3   257  LEU257      0.0019
    120  CD1       34.3890   92.8260   29.4990 C.3   257  LEU257      0.0001
    121  CD2       33.5740   90.4840   29.9010 C.3   257  LEU257      0.0001
    122  N         39.3400   96.8370   34.4380 N.3   285  HIS285     -0.1241
    123  CA        38.7860   96.9930   33.1170 C.3   285  HIS285      0.1621
    124  C         38.7250   98.4990   32.8280 C.2   285  HIS285      0.2264
    125  O         38.5550   99.2980   33.7670 O.2   285  HIS285     -0.2867
    126  CB        37.3800   96.3900   33.0660 C.3   285  HIS285      0.0745
    127  CG        36.7510   96.4310   31.7110 C.ar  285  HIS285      0.0817
    128  ND1       36.9720   95.4580   30.7600 N.ar  285  HIS285     -0.2268
    129  CD2       35.8800   97.3040   31.1560 C.ar  285  HIS285      0.1154
    130  CE1       36.2580   95.7280   29.6810 C.ar  285  HIS285      0.1986
    131  NE2       35.5870   96.8430   29.8960 N.ar  285  HIS285     -0.2212
@<TRIPOS>BOND
     1    17    15   ar
     2    17    19   ar
     3   105   106    1
     4    29    28    2
     5    15    14   ar
     6   107   108    2
     7   107   106    1
     8   106   109    1
     9    19    18   ar
    10    28    27    1
    11    12    11    2
    12    14    13    1
    13    14    16   ar
    14    13    10    1
    15    54    52   ar
    16    54    56   ar
    17    10    11    1
    18    10     9    1
    19    34    33    2
    20    18    16   ar
    21   109   110    1
    22    52    51   ar
    23    27    30    1
    24    27    26    1
    25    56    55   ar
    26    23    22    2
    27   110   111    1
    28     9     7   am
    29    33    32    1
    30    26    22   am
    31    22    21    1
    32    51    50    1
    33    51    53   ar
    34    55    53   ar
    35    38    39    1
    36    20    21    1
    37   102   101    2
    38    50    47    1
    39    31    32    1
    40     7     8    2
    41     7     6    1
    42    39    40    1
    43    39    42    1
    44    46    40   am
    45    46    47    1
    46   111   112    1
    47    32    35    1
    48     1     2    1
    49    21    24    1
    50    36    35    1
    51     4     3    2
    52    35    37    1
    53    40    41    2
    54     2     3    1
    55     3     5   am
    56    47    48    1
    57    91    90    2
    58    42    43    1
    59   112   113    1
    60   101   100    1
    61     5     6    1
    62    24    25    1
    63   100   103    1
    64   100    99    1
    65    48    49    2
    66   103   104    1
    67    44    43    2
    68    90    99   am
    69    90    89    1
    70    43    45   am
    71    89    92    1
    72    89    88    1
    73    92    93    1
    74    94    93   ar
    75    94    96   ar
    76    93    95   ar
    77    96    98   ar
    78   120   119    1
    79   130   131   ar
    80   130   128   ar
    81    95    97   ar
    82   117   116    2
    83   131   129   ar
    84   121   119    1
    85    98    97   ar
    86   118   119    1
    87   118   115    1
    88    77    76    2
    89    85    84    2
    90   128   127   ar
    91   116   115    1
    92   129   127   ar
    93   115   114    1
    94    84    83    1
    95    76    75    1
    96    76    82   am
    97   127   126    1
    98    75    78    1
    99    75    74    1
   100    83    82    1
   101    83    86    1
   102    80    79    1
   103    80    81    1
   104    78    79    1
   105    63    62    1
   106   124   123    1
   107   124   125    2
   108   126   123    1
   109   123   122    1
   110    64    62    1
   111    62    61    1
   112    86    87    1
   113    72    71    2
   114    73    71   am
   115    61    58    1
   116    71    70    1
   117    68    67    2
   118    58    57    1
   119    58    59    1
   120    67    66    1
   121    66    69    1
   122    66    65    1
   123    70    69    1
   124    59    60    2
