@<TRIPOS>MOLECULE
tmp/1jjtB00.pdb
 153 148 0 0 0
SMALL
GASTEIGER

@<TRIPOS>ATOM
      1  N         22.6150   -7.4120   23.0800 N.3    24  VAL24      -0.1231
      2  CA        23.8150   -7.2730   22.2860 C.3    24  VAL24       0.1692
      3  C         25.0440   -6.8950   23.1010 C.2    24  VAL24       0.2592
      4  O         25.0990   -5.8200   23.6940 O.2    24  VAL24      -0.2718
      5  CB        23.6590   -6.3620   21.0610 C.3    24  VAL24       0.0266
      6  CG1       24.8780   -6.5680   20.1590 C.3    24  VAL24       0.0020
      7  CG2       22.3710   -6.6380   20.2930 C.3    24  VAL24       0.0020
      8  N         26.0130   -7.8030   23.1300 N.am   25  ASN25      -0.1974
      9  CA        27.2750   -7.5830   23.8580 C.3    25  ASN25       0.1688
     10  C         27.0950   -6.9040   25.2010 C.2    25  ASN25       0.2292
     11  O         26.4480   -7.3720   26.1150 O.2    25  ASN25      -0.2864
     12  CB        28.1700   -6.5660   23.1170 C.3    25  ASN25       0.1181
     13  CG        28.6080   -6.8500   21.6790 C.2    25  ASN25       0.2629
     14  OD1       29.3300   -6.0340   21.1300 O.2    25  ASN25      -0.2716
     15  ND2       28.3010   -7.9310   20.9740 N.am   25  ASN25      -0.0877
     16  N         25.6920   -3.7000   25.3660 N.3    27  TRP27      -0.1241
     17  CA        24.7790   -2.5490   25.3330 C.3    27  TRP27       0.1605
     18  C         23.4110   -2.9000   25.8960 C.2    27  TRP27       0.2264
     19  O         22.4520   -2.1380   25.7410 O.2    27  TRP27      -0.2867
     20  CB        24.6360   -1.9920   23.9100 C.3    27  TRP27       0.0550
     21  CG        25.9170   -1.4820   23.3270 C.ar   27  TRP27       0.0003
     22  CD1       26.5950   -0.3410   23.6670 C.ar   27  TRP27       0.0946
     23  CD2       26.6910   -2.1080   22.2910 C.ar   27  TRP27       0.0152
     24  NE1       27.7390   -0.2220   22.9060 N.ar   27  TRP27      -0.2442
     25  CE2       27.8160   -1.2970   22.0510 C.ar   27  TRP27       0.0810
     26  CE3       26.5340   -3.2780   21.5460 C.ar   27  TRP27       0.0012
     27  CZ2       28.7840   -1.6050   21.1000 C.ar   27  TRP27       0.0191
     28  CZ3       27.4950   -3.5810   20.6030 C.ar   27  TRP27       0.0001
     29  CH2       28.6040   -2.7580   20.3810 C.ar   27  TRP27       0.0015
     30  N         19.0700   -3.8350   22.8050 N.3    30  VAL30      -0.1245
     31  CA        19.1920   -2.9130   21.7000 C.3    30  VAL30       0.1561
     32  C         17.9000   -2.9190   20.8680 C.2    30  VAL30       0.2260
     33  O         17.5450   -4.0000   20.3920 O.2    30  VAL30      -0.2867
     34  CB        20.3350   -3.2420   20.7080 C.3    30  VAL30       0.0252
     35  CG1       20.4240   -2.1750   19.6220 C.3    30  VAL30       0.0019
     36  CG2       21.6660   -3.3690   21.4360 C.3    30  VAL30       0.0019
     37  N         16.0720   -8.8390   13.9090 N.3    50  PHE50      -0.1241
     38  CA        17.2960   -9.5020   14.3580 C.3    50  PHE50       0.1605
     39  C         17.2650  -11.0090   14.0900 C.2    50  PHE50       0.2264
     40  O         18.2910  -11.6180   13.7960 O.2    50  PHE50      -0.2867
     41  CB        17.5370   -9.3320   15.8540 C.3    50  PHE50       0.0534
     42  CG        18.0570   -8.0390   16.4280 C.ar   50  PHE50      -0.0203
     43  CD1       19.4110   -7.7410   16.3900 C.ar   50  PHE50      -0.0042
     44  CD2       17.1980   -7.1280   17.0250 C.ar   50  PHE50      -0.0042
     45  CE1       19.9180   -6.5710   16.9310 C.ar   50  PHE50      -0.0003
     46  CE2       17.6920   -5.9530   17.5670 C.ar   50  PHE50      -0.0003
     47  CZ        19.0440   -5.6670   17.5240 C.ar   50  PHE50      -0.0000
     48  N         23.3830   -2.9150    5.8930 N.3    76  HIS76      -0.1241
     49  CA        24.7830   -3.2240    6.1950 C.3    76  HIS76       0.1621
     50  C         24.8970   -4.6620    6.7020 C.2    76  HIS76       0.2264
     51  O         23.8690   -5.2730    6.9820 O.2    76  HIS76      -0.2867
     52  CB        25.3900   -2.2590    7.1980 C.3    76  HIS76       0.0745
     53  CG        25.0180   -2.3640    8.6340 C.ar   76  HIS76       0.0817
     54  ND1       23.7370   -2.6160    9.0740 N.ar   76  HIS76      -0.2268
     55  CD2       25.7880   -2.2200    9.7480 C.ar   76  HIS76       0.1154
     56  CE1       23.7320   -2.6380   10.4030 C.ar   76  HIS76       0.1986
     57  NE2       24.9580   -2.4010   10.8320 N.ar   76  HIS76      -0.2212
     58  N         25.9550   -6.1560    9.5290 N.3    78  HIS78      -0.1226
     59  CA        25.6660   -6.5350   10.9110 C.3    78  HIS78       0.1752
     60  C         24.2890   -7.1890   10.9930 C.2    78  HIS78       0.2597
     61  O         23.4180   -6.8600   10.1730 O.2    78  HIS78      -0.2718
     62  CB        25.7340   -5.3340   11.8600 C.3    78  HIS78       0.0759
     63  CG        27.1160   -4.8120   12.1300 C.ar   78  HIS78       0.0818
     64  ND1       27.3700   -3.5420   12.6080 N.ar   78  HIS78      -0.2268
     65  CD2       28.3250   -5.4010   12.0010 C.ar   78  HIS78       0.1154
     66  CE1       28.6750   -3.3770   12.7500 C.ar   78  HIS78       0.1986
     67  NE2       29.2830   -4.4930   12.3820 N.ar   78  HIS78      -0.2212
     68  N         24.1150   -8.0780   11.9550 N.am   79  SER79      -0.1938
     69  CA        22.9140   -8.8720   12.1470 C.3    79  SER79       0.2055
     70  C         21.6610   -8.0620   12.4720 C.2    79  SER79       0.2643
     71  O         20.5390   -8.5770   12.3660 O.2    79  SER79      -0.2714
     72  CB        23.1530   -9.8900   13.2810 C.3    79  SER79       0.2130
     73  OG        22.8620  -11.1960   12.8160 O.3    79  SER79      -0.2179
     74  N         21.7730   -6.7870   12.8750 N.am   80  ASP80      -0.1971
     75  CA        20.5120   -6.0710   13.1550 C.3    80  ASP80       0.1709
     76  C         19.8450   -5.7160   11.8320 C.2    80  ASP80       0.2293
     77  O         18.6930   -5.2900   11.7540 O.2    80  ASP80      -0.2864
     78  CB        20.7460   -4.8880   14.0690 C.3    80  ASP80       0.1436
     79  CG        21.8170   -3.9000   13.6980 C.2    80  ASP80       0.3671
     80  OD1       22.5960   -4.1360   12.7470 O.co2  80  ASP80      -0.2456
     81  OD2       21.9100   -2.8460   14.3710 O.co2  80  ASP80      -0.2456
     82  N         28.5520  -15.8320    7.0470 N.3   110  LYS110     -0.1245
     83  CA        27.1020  -15.7060    7.1720 C.3   110  LYS110      0.1561
     84  C         26.3750  -15.8710    5.8420 C.2   110  LYS110      0.2260
     85  O         26.9360  -15.6690    4.7640 O.2   110  LYS110     -0.2867
     86  CB        26.7540  -14.3370    7.7670 C.3   110  LYS110      0.0271
     87  CG        27.3670  -14.0500    9.1250 C.3   110  LYS110      0.0035
     88  CD        26.6760  -14.8360   10.2290 C.3   110  LYS110      0.0206
     89  CE        27.2510  -14.4680   11.5890 C.3   110  LYS110      0.1093
     90  NZ        27.0020  -13.0370   11.9120 N.3   110  LYS110     -0.1314
     91  N         29.7150    4.0460   10.0240 N.3   138  HIS138     -0.1241
     92  CA        29.4380    2.9910   10.9900 C.3   138  HIS138      0.1621
     93  C         30.1250    1.6860   10.5850 C.2   138  HIS138      0.2264
     94  O         30.6270    0.9350   11.4190 O.2   138  HIS138     -0.2867
     95  CB        27.9210    2.7890   11.0910 C.3   138  HIS138      0.0745
     96  CG        27.4950    1.5580   11.8320 C.ar  138  HIS138      0.0817
     97  ND1       27.7270    1.3870   13.1790 N.ar  138  HIS138     -0.2268
     98  CD2       26.8550    0.4420   11.4110 C.ar  138  HIS138      0.1154
     99  CE1       27.2540    0.2190   13.5590 C.ar  138  HIS138      0.1986
    100  NE2       26.7090   -0.3840   12.5080 N.ar  138  HIS138     -0.2212
    101  N         22.1040    2.3970   10.5270 N.3   157  CYS157     -0.1235
    102  CA        23.0050    2.6310   11.6670 C.3   157  CYS157      0.1677
    103  C         24.0140    3.7340   11.3820 C.2   157  CYS157      0.2270
    104  O         24.8610    4.0480   12.2030 O.2   157  CYS157     -0.2867
    105  CB        23.7030    1.3190   12.0220 C.3   157  CYS157      0.0956
    106  SG        22.5830   -0.0710   12.2670 S.3   157  CYS157     -0.0801
    107  N         23.2150    8.6620   13.6930 N.3   160  LYS160     -0.1245
    108  CA        23.6190    8.5930   15.0860 C.3   160  LYS160      0.1561
    109  C         23.6800    9.9860   15.6980 C.2   160  LYS160      0.2260
    110  O         24.7640   10.5630   15.8550 O.2   160  LYS160     -0.2867
    111  CB        24.9870    7.9070   15.1590 C.3   160  LYS160      0.0271
    112  CG        25.0010    6.4270   14.7550 C.3   160  LYS160      0.0035
    113  CD        24.4400    5.5770   15.8880 C.3   160  LYS160      0.0206
    114  CE        24.3330    4.1030   15.5610 C.3   160  LYS160      0.1093
    115  NZ        25.5810    3.5120   15.0160 N.3   160  LYS160     -0.1314
    116  N         23.0670   11.3710   18.7870 N.3   162  TYR162     -0.1227
    117  CA        23.5320   11.7440   20.1290 C.3   162  TYR162      0.1736
    118  C         24.7860   10.9720   20.5440 C.2   162  TYR162      0.2596
    119  O         25.2440   11.0830   21.6830 O.2   162  TYR162     -0.2718
    120  CB        22.4270   11.5850   21.1690 C.3   162  TYR162      0.0548
    121  CG        21.7260   10.2530   21.2360 C.ar  162  TYR162     -0.0200
    122  CD1       22.2270    9.1920   21.9820 C.ar  162  TYR162     -0.0009
    123  CD2       20.5250   10.0490   20.5530 C.ar  162  TYR162     -0.0009
    124  CE1       21.5760    7.9740   22.0440 C.ar  162  TYR162      0.0417
    125  CE2       19.8770    8.8340   20.6130 C.ar  162  TYR162      0.0417
    126  CZ        20.3960    7.7980   21.3540 C.ar  162  TYR162      0.1957
    127  OH        19.7290    6.5870   21.4030 O.3   162  TYR162     -0.2866
    128  N         25.3750   10.2140   19.6260 N.am  163  GLY163     -0.1957
    129  CA        26.4940    9.3360   19.9080 C.3   163  GLY163      0.1869
    130  C         26.6710    8.3010   18.8150 C.2   163  GLY163      0.2309
    131  O         25.6850    7.7830   18.2970 O.2   163  GLY163     -0.2863
    132  N         27.6680    5.2320   18.8040 N.3   165  GLY165     -0.1210
    133  CA        27.4150    3.8540   19.1730 C.3   165  GLY165      0.1956
    134  C         28.5500    2.8920   18.9140 C.2   165  GLY165      0.2611
    135  O         29.7030    3.1680   19.2460 O.2   165  GLY165     -0.2717
    136  N         28.3130    1.7220   18.3190 N.am  166  ASN166     -0.1974
    137  CA        29.3640    0.7130   18.1610 C.3   166  ASN166      0.1688
    138  C         30.4420    1.0970   17.1520 C.2   166  ASN166      0.2292
    139  O         30.2130    1.1310   15.9410 O.2   166  ASN166     -0.2864
    140  CB        28.7400   -0.6420   17.7700 C.3   166  ASN166      0.1181
    141  CG        29.7720   -1.6740   17.3630 C.2   166  ASN166      0.2629
    142  OD1       30.9210   -1.5800   17.8150 O.2   166  ASN166     -0.2716
    143  ND2       29.3890   -2.6550   16.5480 N.am  166  ASN166     -0.0877
    144  N         18.7240    3.0870   15.5100 N.3   196  HIS196     -0.1241
    145  CA        18.6270    2.8570   16.9610 C.3   196  HIS196      0.1621
    146  C         18.0420    4.0350   17.7240 C.2   196  HIS196      0.2264
    147  O         17.8240    3.9030   18.9310 O.2   196  HIS196     -0.2867
    148  CB        20.0170    2.4690   17.4820 C.3   196  HIS196      0.0745
    149  CG        20.4920    1.2030   16.8140 C.ar  196  HIS196      0.0817
    150  ND1       19.9250   -0.0270   17.0910 N.ar  196  HIS196     -0.2268
    151  CD2       21.4660    0.9920   15.8890 C.ar  196  HIS196      0.1154
    152  CE1       20.5410   -0.9340   16.3540 C.ar  196  HIS196      0.1986
    153  NE2       21.4840   -0.3460   15.6190 N.ar  196  HIS196     -0.2212
@<TRIPOS>BOND
     1    85    84    2
     2    84    83    1
     3    48    49    1
     4    49    50    1
     5    49    52    1
     6    50    51    2
     7    82    83    1
     8    83    86    1
     9    52    53    1
    10    86    87    1
    11    53    54   ar
    12    53    55   ar
    13    54    56   ar
    14    87    88    1
    15    58    59    1
    16    55    57   ar
    17    91    92    1
    18    61    60    2
    19    88    89    1
    20    56    57   ar
    21   101   102    1
    22    93    92    1
    23    93    94    2
    24    59    60    1
    25    59    62    1
    26    92    95    1
    27    60    68   am
    28    95    96    1
    29   103   102    1
    30   103   104    2
    31    98    96   ar
    32    98   100   ar
    33    89    90    1
    34   102   105    1
    35    77    76    2
    36    76    75    1
    37    96    97   ar
    38    62    63    1
    39    68    69    1
    40    65    63   ar
    41    65    67   ar
    42   105   106    1
    43    63    64   ar
    44    69    70    1
    45    69    72    1
    46    71    70    2
    47    67    66   ar
    48    70    74   am
    49   100    99   ar
    50    64    66   ar
    51    80    79   ar
    52    73    72    1
    53    74    75    1
    54    75    78    1
    55    97    99   ar
    56   107   108    1
    57    79    78    1
    58    79    81   ar
    59    40    39    2
    60    37    38    1
    61    39    38    1
    62    38    41    1
    63   112   111    1
    64   112   113    1
    65   115   114    1
    66   108   111    1
    67   108   109    1
    68   144   145    1
    69   114   113    1
    70   153   151   ar
    71   153   152   ar
    72   109   110    2
    73    41    42    1
    74   151   149   ar
    75   139   138    2
    76   152   150   ar
    77    43    42   ar
    78    43    45   ar
    79    42    44   ar
    80   143   141   am
    81   149   150   ar
    82   149   148    1
    83    45    47   ar
    84   145   148    1
    85   145   146    1
    86    44    46   ar
    87   138   137    1
    88   141   140    1
    89   141   142    2
    90    47    46   ar
    91   146   147    2
    92   140   137    1
    93   137   136    1
    94   131   130    2
    95   136   134   am
    96   116   117    1
    97   132   133    1
    98   130   129    1
    99   134   133    1
   100   134   135    2
   101    35    34    1
   102   128   129    1
   103   128   118   am
   104   117   118    1
   105   117   120    1
   106     6     5    1
   107     7     5    1
   108    29    28   ar
   109    29    27   ar
   110    33    32    2
   111   118   119    2
   112   123   125   ar
   113   123   121   ar
   114    28    26   ar
   115   125   126   ar
   116    34    36    1
   117    34    31    1
   118    32    31    1
   119    15    13   am
   120     5     2    1
   121    27    25   ar
   122    14    13    2
   123   120   121    1
   124   121   122   ar
   125   126   127    1
   126   126   124   ar
   127    26    23   ar
   128    13    12    1
   129    31    30    1
   130   122   124   ar
   131    25    23   ar
   132    25    24   ar
   133     2     1    1
   134     2     3    1
   135    23    21   ar
   136    24    22   ar
   137     3     8   am
   138     3     4    2
   139    12     9    1
   140     8     9    1
   141    21    22   ar
   142    21    20    1
   143     9    10    1
   144    20    17    1
   145    10    11    2
   146    17    16    1
   147    17    18    1
   148    19    18    2
