@<TRIPOS>MOLECULE
tmp/1jjvA00.pdb
 107 102 0 0 0
SMALL
GASTEIGER

@<TRIPOS>ATOM
      1  N         14.8310   24.4730   10.7180 N.3    11  ILE11      -0.1231
      2  CA        13.7040   25.2720   11.1790 C.3    11  ILE11       0.1692
      3  C         13.4430   25.1070   12.6740 C.2    11  ILE11       0.2593
      4  O         13.4410   23.9690   13.2210 O.2    11  ILE11      -0.2718
      5  CB        12.4090   24.8680   10.3960 C.3    11  ILE11       0.0266
      6  CG1       11.2330   25.6950   10.8980 C.3    11  ILE11       0.0019
      7  CG2       12.1590   23.3620   10.5280 C.3    11  ILE11       0.0020
      8  CD1       10.0860   25.8320    9.8920 C.3    11  ILE11       0.0001
      9  N         13.1850   26.2210   13.3430 N.am   12  GLY12      -0.1942
     10  CA        12.9320   26.1860   14.7720 C.3    12  GLY12       0.2014
     11  C         14.0660   25.8650   15.7420 C.2    12  GLY12       0.2640
     12  O         13.8270   25.6840   16.9340 O.2    12  GLY12      -0.2714
     13  N         15.2920   25.7760   15.2560 N.am   13  SER13      -0.1935
     14  CA        16.3960   25.2860   16.0740 C.3    13  SER13       0.2055
     15  C         16.9970   26.3760   16.9950 C.2    13  SER13       0.2644
     16  O         17.6250   26.0570   18.0010 O.2    13  SER13      -0.2714
     17  CB        17.4860   24.6900   15.1510 C.3    13  SER13       0.2130
     18  OG        18.0270   25.6850   14.2690 O.3    13  SER13      -0.2179
     19  N         16.7820   27.6340   16.6420 N.am   14  GLY14      -0.1939
     20  CA        17.2870   28.7550   17.4330 C.3    14  GLY14       0.2014
     21  C         18.3640   29.5940   16.7530 C.2    14  GLY14       0.2639
     22  O         19.1700   30.2200   17.4400 O.2    14  GLY14      -0.2714
     23  N         18.3740   29.6570   15.4180 N.am   15  LYS15      -0.1963
     24  CA        19.4190   30.4070   14.7460 C.3    15  LYS15       0.1728
     25  C         19.3950   31.8960   15.2030 C.2    15  LYS15       0.2617
     26  O         20.4290   32.4710   15.5320 O.2    15  LYS15      -0.2715
     27  CB        19.2320   30.3260   13.2280 C.3    15  LYS15       0.0311
     28  CG        19.3930   28.9010   12.6940 C.3    15  LYS15       0.0038
     29  CD        19.1760   28.9880   11.1330 C.3    15  LYS15       0.0206
     30  CE        17.6540   29.2610   10.8890 C.3    15  LYS15       0.1093
     31  NZ        16.8310   28.1300   11.3840 N.3    15  LYS15      -0.1314
     32  N         18.1920   32.4650   15.2640 N.am   16  THR16      -0.1937
     33  CA        17.9970   33.8770   15.6050 C.3    16  THR16       0.2028
     34  C         18.4430   34.1200   17.0300 C.2    16  THR16       0.2642
     35  O         19.0910   35.1090   17.3350 O.2    16  THR16      -0.2714
     36  CB        16.5030   34.2850   15.5230 C.3    16  THR16       0.1808
     37  OG1       16.0680   34.1860   14.1680 O.3    16  THR16      -0.2208
     38  CG2       16.3450   35.7980   15.9340 C.3    16  THR16       0.0379
     39  N         18.0840   33.2020   17.8940 N.am   17  THR17      -0.1950
     40  CA        18.4140   33.3540   19.3200 C.3    17  THR17       0.1897
     41  C         19.9180   33.4410   19.5310 C.2    17  THR17       0.2313
     42  O         20.4200   34.2230   20.3180 O.2    17  THR17      -0.2863
     43  CB        17.7930   32.1950   20.1580 C.3    17  THR17       0.1794
     44  OG1       16.3790   32.3650   20.1540 O.3    17  THR17      -0.2208
     45  CG2       18.1290   32.3140   21.6470 C.3    17  THR17       0.0378
     46  N         19.8660   30.2340    6.8440 N.3   107  PRO107     -0.2116
     47  CA        18.9840   29.0940    7.0810 C.3   107  PRO107      0.1372
     48  C         19.3520   27.9390    6.1140 C.2   107  PRO107      0.2244
     49  O         19.3870   26.7760    6.4910 O.2   107  PRO107     -0.2868
     50  CB        17.5590   29.6940    6.8070 C.3   107  PRO107      0.0268
     51  CG        17.7380   31.1760    7.2350 C.3   107  PRO107      0.0207
     52  CD        19.1200   31.5100    6.6790 C.3   107  PRO107      0.0892
     53  N          9.2680   24.0140   19.1430 N.3   134  ARG134     -0.1231
     54  CA         9.6240   25.3860   19.1380 C.3   134  ARG134      0.1694
     55  C          8.8840   26.0860   18.0240 C.2   134  ARG134      0.2592
     56  O          8.4810   27.2340   18.1730 O.2   134  ARG134     -0.2718
     57  CB        11.1280   25.5680   18.9880 C.3   134  ARG134      0.0321
     58  CG        11.8770   24.9580   20.1500 C.3   134  ARG134      0.0489
     59  CD        12.1400   25.9770   21.2370 C.3   134  ARG134      0.2205
     60  NE        12.7320   25.3230   22.3940 N.pl3 134  ARG134     -0.0865
     61  CZ        13.9920   24.9800   22.4560 C.cat 134  ARG134      0.5346
     62  NH1       14.8180   25.2940   21.4540 N.pl3 134  ARG134      0.1354
     63  NH2       14.4460   24.3710   23.5490 N.pl3 134  ARG134      0.1354
     64  N          8.6890   25.3990   16.9100 N.am  135  SER135     -0.1952
     65  CA         8.1000   26.0460   15.7420 C.3   135  SER135      0.1924
     66  C          6.6060   26.2790   15.9320 C.2   135  SER135      0.2314
     67  O          6.0070   27.0790   15.2190 O.2   135  SER135     -0.2863
     68  CB         8.3820   25.2730   14.4500 C.3   135  SER135      0.2116
     69  OG         9.7720   25.1880   14.2180 O.3   135  SER135     -0.2180
     70  N         20.7430   23.4130   21.5920 N.3   164  ASN164     -0.1240
     71  CA        19.6690   24.2900   22.0870 C.3   164  ASN164      0.1653
     72  C         18.4170   23.5520   22.4390 C.2   164  ASN164      0.2266
     73  O         17.3520   24.1210   22.4780 O.2   164  ASN164     -0.2867
     74  CB        19.3600   25.3800   21.0230 C.3   164  ASN164      0.1155
     75  CG        18.5230   26.5350   21.5800 C.2   164  ASN164      0.2627
     76  OD1       18.6880   26.9690   22.7360 O.2   164  ASN164     -0.2716
     77  ND2       17.5970   27.0110   20.7730 N.am  164  ASN164     -0.0877
     78  N         17.6460   22.3060   25.5130 N.3   166  ALA166     -0.1231
     79  CA        17.0470   22.5770   26.8340 C.3   166  ALA166      0.1694
     80  C         16.3460   23.9540   26.7750 C.2   166  ALA166      0.2592
     81  O         16.6960   24.7990   25.9380 O.2   166  ALA166     -0.2718
     82  CB        18.2190   22.5720   27.9830 C.3   166  ALA166      0.0304
     83  N         15.4020   24.2020   27.6760 N.am  167  GLU167     -0.1966
     84  CA        14.6310   25.4320   27.7060 C.3   167  GLU167      0.1733
     85  C         15.5150   26.5970   28.1100 C.2   167  GLU167      0.2616
     86  O         16.4590   26.4250   28.8740 O.2   167  GLU167     -0.2715
     87  CB        13.4810   25.2920   28.7310 C.3   167  GLU167      0.0429
     88  CG        12.3170   24.4770   28.2290 C.3   167  GLU167      0.1163
     89  CD        11.7620   24.9770   26.9210 C.2   167  GLU167      0.3649
     90  OE1       11.1600   26.0610   26.8910 O.co2 167  GLU167     -0.2457
     91  OE2       11.9110   24.2410   25.9190 O.co2 167  GLU167     -0.2457
     92  N         15.2760   27.7850   27.5710 N.am  168  LEU168     -0.1977
     93  CA        16.0860   28.9400   28.0410 C.3   168  LEU168      0.1596
     94  C         16.1280   29.1740   29.5620 C.2   168  LEU168      0.2287
     95  O         17.1450   29.5430   30.1270 O.2   168  LEU168     -0.2864
     96  CB        15.5750   30.2220   27.4090 C.3   168  LEU168      0.0297
     97  CG        15.8410   30.4700   25.9390 C.3   168  LEU168      0.0022
     98  CD1       15.1080   31.7280   25.5010 C.3   168  LEU168      0.0001
     99  CD2       17.3420   30.6130   25.6650 C.3   168  LEU168      0.0001
    100  N         24.2710   28.6400   27.6560 N.3   175  LEU175     -0.1245
    101  CA        24.3440   29.0450   26.2390 C.3   175  LEU175      0.1561
    102  C         25.2250   30.2720   26.1110 C.2   175  LEU175      0.2260
    103  O         26.0580   30.3850   25.1810 O.2   175  LEU175     -0.2867
    104  CB        22.9700   29.4010   25.6860 C.3   175  LEU175      0.0270
    105  CG        21.9490   28.3910   25.2200 C.3   175  LEU175      0.0019
    106  CD1       20.7110   29.1400   24.7950 C.3   175  LEU175      0.0001
    107  CD2       22.5050   27.4800   24.0770 C.3   175  LEU175      0.0001
@<TRIPOS>BOND
     1    48    49    2
     2    48    47    1
     3    52    46    1
     4    52    51    1
     5    50    47    1
     6    50    51    1
     7    46    47    1
     8     8     6    1
     9     5     7    1
    10     5     6    1
    11     5     2    1
    12     1     2    1
    13    30    29    1
    14    30    31    1
    15    29    28    1
    16     2     3    1
    17     3     4    2
    18     3     9   am
    19    28    27    1
    20    27    24    1
    21     9    10    1
    22    37    36    1
    23    69    68    1
    24    18    17    1
    25    68    65    1
    26    24    25    1
    27    24    23    1
    28    10    11    1
    29    17    14    1
    30    25    32   am
    31    25    26    2
    32    67    66    2
    33    13    11   am
    34    13    14    1
    35    32    33    1
    36    23    21   am
    37    36    33    1
    38    36    38    1
    39    33    34    1
    40    65    66    1
    41    65    64    1
    42    11    12    2
    43    14    15    1
    44    19    15   am
    45    19    20    1
    46    21    20    1
    47    21    22    2
    48    64    55   am
    49    15    16    2
    50    34    35    2
    51    34    39   am
    52    39    40    1
    53    55    56    2
    54    55    54    1
    55    57    54    1
    56    57    58    1
    57    54    53    1
    58    40    41    1
    59    40    43    1
    60    41    42    2
    61    58    59    1
    62    44    43    1
    63    43    45    1
    64    77    75   am
    65    74    75    1
    66    74    71    1
    67    59    60    1
    68    62    61    1
    69    75    76    2
    70    70    71    1
    71    71    72    1
    72    60    61    2
    73    72    73    2
    74    61    63    1
    75   107   105    1
    76   106   105    1
    77   103   102    2
    78   105   104    1
    79    98    97    1
    80    78    79    1
    81    99    97    1
    82   104   101    1
    83    91    89   ar
    84    81    80    2
    85    97    96    1
    86   102   101    1
    87   101   100    1
    88    80    79    1
    89    80    83   am
    90    79    82    1
    91    90    89   ar
    92    89    88    1
    93    96    93    1
    94    92    93    1
    95    92    85   am
    96    83    84    1
    97    84    85    1
    98    84    87    1
    99    93    94    1
   100    85    86    2
   101    88    87    1
   102    94    95    2
