@<TRIPOS>MOLECULE
tmp/1jk3A00.pdb
 138 138 0 0 0
SMALL
GASTEIGER

@<TRIPOS>ATOM
      1  N         20.3240  -12.3350   18.5320 N.3    73  GLY73      -0.1210
      2  CA        19.2640  -12.4870   19.4920 C.3    73  GLY73       0.1956
      3  C         19.0610  -11.2200   20.2880 C.2    73  GLY73       0.2612
      4  O         19.6470  -10.1780   20.0040 O.2    73  GLY73      -0.2717
      5  N         18.2310  -11.3270   21.3170 N.am   74  GLY74      -0.1942
      6  CA        17.8720  -10.1870   22.1190 C.3    74  GLY74       0.2014
      7  C         17.2740   -9.1020   21.2550 C.2    74  GLY74       0.2639
      8  O         16.3390   -9.3240   20.5020 O.2    74  GLY74      -0.2714
      9  N         17.8870   -7.9370   21.3390 N.am   75  ILE75      -0.1963
     10  CA        17.4070   -6.8020   20.5590 C.3    75  ILE75       0.1727
     11  C         17.7050   -6.8710   19.0790 C.2    75  ILE75       0.2616
     12  O         18.8650   -7.0680   18.6660 O.2    75  ILE75      -0.2715
     13  CB        18.1140   -5.4970   20.9690 C.3    75  ILE75       0.0290
     14  CG1       17.8600   -5.1940   22.4470 C.3    75  ILE75       0.0022
     15  CG2       17.5970   -4.3290   20.1420 C.3    75  ILE75       0.0023
     16  CD1       18.5220   -3.9230   22.9320 C.3    75  ILE75       0.0001
     17  N         16.6710   -6.7190   18.2820 N.am   76  LEU76      -0.1963
     18  CA        16.7780   -6.9070   16.8510 C.3    76  LEU76       0.1728
     19  C         16.9920   -5.6170   16.0700 C.2    76  LEU76       0.2616
     20  O         17.6000   -5.6000   15.0200 O.2    76  LEU76      -0.2715
     21  CB        15.5000   -7.5830   16.3640 C.3    76  LEU76       0.0311
     22  CG        15.1950   -8.9450   16.9900 C.3    76  LEU76       0.0022
     23  CD1       13.7940   -9.3530   16.5870 C.3    76  LEU76       0.0001
     24  CD2       16.2050  -10.0410   16.6280 C.3    76  LEU76       0.0001
     25  N         16.4250   -4.5290   16.6010 N.am   77  ALA77      -0.1963
     26  CA        16.3720   -3.2330   15.9360 C.3    77  ALA77       0.1728
     27  C         15.8670   -2.2220   16.9410 C.2    77  ALA77       0.2616
     28  O         15.2490   -2.5830   17.9520 O.2    77  ALA77      -0.2715
     29  CB        15.3530   -3.2960   14.7850 C.3    77  ALA77       0.0334
     30  N         16.1170   -0.9540   16.6730 N.am   78  HIS78      -0.1959
     31  CA        15.5840    0.1270   17.4840 C.3    78  HIS78       0.1787
     32  C         15.4010    1.3270   16.5740 C.2    78  HIS78       0.2620
     33  O         16.0000    1.3830   15.5140 O.2    78  HIS78      -0.2715
     34  CB        16.5330    0.5040   18.6770 C.3    78  HIS78       0.0785
     35  CG        17.9370    0.9540   18.3120 C.ar   78  HIS78       0.0821
     36  ND1       19.0400    0.5250   19.0180 N.ar   78  HIS78      -0.2267
     37  CD2       18.4150    1.8430   17.4010 C.ar   78  HIS78       0.1154
     38  CE1       20.1350    1.0700   18.5150 C.ar   78  HIS78       0.1986
     39  NE2       19.7830    1.8900   17.5450 N.ar   78  HIS78      -0.2212
     40  N         14.5650    2.2790   16.9690 N.am   79  ALA79      -0.1977
     41  CA        14.3620    3.4560   16.1410 C.3    79  ALA79       0.1597
     42  C         14.0270    4.6440   17.0280 C.2    79  ALA79       0.2287
     43  O         13.4790    4.4800   18.1180 O.2    79  ALA79      -0.2864
     44  CB        13.2530    3.2240   15.1420 C.3    79  ALA79       0.0319
     45  N          8.7230   -7.3880    8.7120 N.3   109  LEU109     -0.1231
     46  CA         7.9620   -7.3100    9.9390 C.3   109  LEU109      0.1693
     47  C          8.6860   -6.4490   10.9620 C.2   109  LEU109      0.2592
     48  O          8.0470   -5.6730   11.6860 O.2   109  LEU109     -0.2718
     49  CB         7.6950   -8.7000   10.4950 C.3   109  LEU109      0.0284
     50  CG         6.8010   -9.6260    9.6950 C.3   109  LEU109      0.0019
     51  CD1        6.8190  -11.0130   10.3040 C.3   109  LEU109      0.0001
     52  CD2        5.3880   -9.0550    9.6560 C.3   109  LEU109      0.0001
     53  N         10.0030   -6.5830   11.0410 N.am  110  THR110     -0.1953
     54  CA        10.7690   -5.7850   11.9820 C.3   110  THR110      0.1897
     55  C         10.7040   -4.3040   11.6040 C.2   110  THR110      0.2313
     56  O         10.5730   -3.4460   12.5000 O.2   110  THR110     -0.2863
     57  CB        12.2230   -6.2910   11.9850 C.3   110  THR110      0.1794
     58  OG1       12.2410   -7.6640   12.3930 O.3   110  THR110     -0.2208
     59  CG2       13.0740   -5.5250   12.9640 C.3   110  THR110      0.0378
     60  N          7.4780   -2.4430   12.6570 N.3   113  HIS113     -0.1226
     61  CA         7.5740   -2.0390   14.0520 C.3   113  HIS113      0.1752
     62  C          8.4920   -0.8300   14.2290 C.2   113  HIS113      0.2595
     63  O          8.1380    0.1470   14.8660 O.2   113  HIS113     -0.2718
     64  CB         8.0350   -3.2440   14.8740 C.3   113  HIS113      0.0759
     65  CG         8.2400   -2.9460   16.3320 C.ar  113  HIS113      0.0818
     66  ND1        7.3040   -3.2630   17.2900 N.ar  113  HIS113     -0.2268
     67  CD2        9.2530   -2.3400   16.9930 C.ar  113  HIS113      0.1154
     68  CE1        7.7330   -2.8630   18.4810 C.ar  113  HIS113      0.1986
     69  NE2        8.9180   -2.2930   18.3260 N.ar  113  HIS113     -0.2212
     70  N          9.7020   -0.9140   13.6760 N.am  114  ALA114     -0.1980
     71  CA        10.6680    0.1840   13.7850 C.3   114  ALA114      0.1597
     72  C         10.1200    1.4930   13.2440 C.2   114  ALA114      0.2287
     73  O         10.2450    2.5300   13.8840 O.2   114  ALA114     -0.2864
     74  CB        11.9890   -0.1720   13.1070 C.3   114  ALA114      0.0319
     75  N          7.8590    3.3930   15.4850 N.3   117  HIS117     -0.1241
     76  CA         8.5970    4.2950   16.3530 C.3   117  HIS117      0.1621
     77  C          9.0810    5.5470   15.6140 C.2   117  HIS117      0.2264
     78  O          9.0010    6.6440   16.1590 O.2   117  HIS117     -0.2867
     79  CB         9.8270    3.6150   16.9390 C.3   117  HIS117      0.0745
     80  CG         9.5530    2.5410   17.9370 C.ar  117  HIS117      0.0817
     81  ND1        8.7340    2.6900   19.0260 N.ar  117  HIS117     -0.2268
     82  CD2       10.0580    1.2870   18.0130 C.ar  117  HIS117      0.1154
     83  CE1        8.7520    1.5610   19.7270 C.ar  117  HIS117      0.1986
     84  NE2        9.5610    0.6940   19.1420 N.ar  117  HIS117     -0.2212
     85  N          5.4910    1.5940   22.6200 N.3   123  HIS123     -0.1241
     86  CA         5.1170    0.2040   22.7220 C.3   123  HIS123      0.1621
     87  C          3.6810   -0.0100   23.1960 C.2   123  HIS123      0.2264
     88  O          3.0920    0.8100   23.8970 O.2   123  HIS123     -0.2867
     89  CB         6.1110   -0.5100   23.6360 C.3   123  HIS123      0.0745
     90  CG         7.3970   -0.7910   22.9470 C.ar  123  HIS123      0.0817
     91  ND1        8.5670   -1.0630   23.6050 N.ar  123  HIS123     -0.2268
     92  CD2        7.6910   -0.8210   21.6310 C.ar  123  HIS123      0.1154
     93  CE1        9.5180   -1.2830   22.7150 C.ar  123  HIS123      0.1986
     94  NE2        9.0180   -1.1260   21.5100 N.ar  123  HIS123     -0.2212
     95  N          1.3180   -4.8060   16.5490 N.3   130  VAL130     -0.1245
     96  CA         2.6340   -4.7890   15.9270 C.3   130  VAL130      0.1561
     97  C          3.6480   -4.0500   16.8110 C.2   130  VAL130      0.2260
     98  O          4.8290   -4.3610   16.7520 O.2   130  VAL130     -0.2867
     99  CB         2.5050   -4.1960   14.5160 C.3   130  VAL130      0.0252
    100  CG1        3.8270   -4.2040   13.8330 C.3   130  VAL130      0.0019
    101  CG2        1.5040   -5.0140   13.6940 C.3   130  VAL130      0.0019
    102  N          3.8880   -4.3120   20.0000 N.3   132  PHE132     -0.1228
    103  CA         4.2980   -5.1360   21.1450 C.3   132  PHE132      0.1721
    104  C          5.8010   -5.3750   21.0090 C.2   132  PHE132      0.2437
    105  O          6.2840   -5.6040   19.9060 O.2   132  PHE132     -0.2733
    106  CB         3.5520   -6.4730   21.1020 C.3   132  PHE132      0.0547
    107  CG         3.7440   -7.3430   22.3080 C.ar  132  PHE132     -0.0202
    108  CD1        3.2160   -6.9730   23.5370 C.ar  132  PHE132     -0.0042
    109  CD2        4.4050   -8.5690   22.2050 C.ar  132  PHE132     -0.0042
    110  CE1        3.3610   -7.7930   24.6260 C.ar  132  PHE132     -0.0003
    111  CE2        4.5350   -9.3890   23.3250 C.ar  132  PHE132     -0.0003
    112  CZ         4.0230   -8.9810   24.5270 C.ar  132  PHE132     -0.0000
    113  N          6.5580   -5.3180   22.0980 N.am  133  PRO133     -0.2718
    114  CA         8.0280   -5.3690   21.9800 C.3   133  PRO133      0.1535
    115  C          8.7200   -6.7090   21.7990 C.2   133  PRO133      0.2599
    116  O          9.9480   -6.7520   21.9340 O.2   133  PRO133     -0.2715
    117  CB         8.5240   -4.7250   23.2810 C.3   133  PRO133      0.0310
    118  CG         7.4140   -4.6290   24.1550 C.3   133  PRO133      0.0237
    119  CD         6.1230   -4.9520   23.4560 C.3   133  PRO133      0.0939
    120  N          7.9790   -7.7490   21.4610 N.am  134  THR134     -0.1937
    121  CA         8.5650   -9.0380   21.1120 C.3   134  THR134      0.2028
    122  C          8.2240   -9.3810   19.6690 C.2   134  THR134      0.2642
    123  O          7.0730   -9.2490   19.2460 O.2   134  THR134     -0.2714
    124  CB         8.0280  -10.1360   22.0160 C.3   134  THR134      0.1808
    125  OG1        8.5310   -9.9380   23.3390 O.3   134  THR134     -0.2208
    126  CG2        8.5630  -11.5100   21.6030 C.3   134  THR134      0.0379
    127  N          9.2290   -9.7760   18.8950 N.am  135  TYR135     -0.1973
    128  CA         9.0150  -10.1550   17.5030 C.3   135  TYR135      0.1639
    129  C          8.2070  -11.4340   17.4030 C.2   135  TYR135      0.2290
    130  O          8.4780  -12.4050   18.1110 O.2   135  TYR135     -0.2864
    131  CB        10.3620  -10.3660   16.8210 C.3   135  TYR135      0.0560
    132  CG        10.3350  -11.0230   15.4660 C.ar  135  TYR135     -0.0198
    133  CD1       10.5090  -12.3850   15.3530 C.ar  135  TYR135     -0.0009
    134  CD2       10.2120  -10.2960   14.3040 C.ar  135  TYR135     -0.0009
    135  CE1       10.5200  -13.0050   14.1310 C.ar  135  TYR135      0.0417
    136  CE2       10.2370  -10.9130   13.0800 C.ar  135  TYR135      0.0417
    137  CZ        10.3890  -12.2570   12.9930 C.ar  135  TYR135      0.1957
    138  OH        10.4210  -12.8490   11.7560 O.3   135  TYR135     -0.2866
@<TRIPOS>BOND
     1    45    46    1
     2    52    50    1
     3    50    51    1
     4    50    49    1
     5    46    49    1
     6    46    47    1
     7    47    53   am
     8    47    48    2
     9    53    54    1
    10    55    54    1
    11    55    56    2
    12   138   137    1
    13    54    57    1
    14    57    58    1
    15    57    59    1
    16    60    61    1
    17   137   136   ar
    18   137   135   ar
    19   136   134   ar
    20    74    71    1
    21    72    71    1
    22    72    73    2
    23    70    71    1
    24    70    62   am
    25   101    99    1
    26   100    99    1
    27    61    62    1
    28    61    64    1
    29   135   133   ar
    30    62    63    2
    31   134   132   ar
    32    99    96    1
    33    29    26    1
    34    64    65    1
    35    20    19    2
    36    44    41    1
    37   133   132   ar
    38   132   131    1
    39    75    76    1
    40    33    32    2
    41    77    78    2
    42    77    76    1
    43    96    95    1
    44    96    97    1
    45    26    25    1
    46    26    27    1
    47    19    25   am
    48    19    18    1
    49    41    40    1
    50    41    42    1
    51    65    67   ar
    52    65    66   ar
    53    76    79    1
    54    21    18    1
    55    21    22    1
    56    32    40   am
    57    32    31    1
    58    23    22    1
    59    24    22    1
    60    30    27   am
    61    30    31    1
    62    98    97    2
    63   131   128    1
    64    18    17    1
    65    79    80    1
    66    27    28    2
    67    67    69   ar
    68    42    43    2
    69    66    68   ar
    70    37    39   ar
    71    37    35   ar
    72   129   128    1
    73   129   130    2
    74    31    34    1
    75   128   127    1
    76    39    38   ar
    77    80    82   ar
    78    80    81   ar
    79    82    84   ar
    80    17    11   am
    81    35    34    1
    82    35    36   ar
    83    69    68   ar
    84    38    36   ar
    85     1     2    1
    86    12    11    2
    87   127   122   am
    88    81    83   ar
    89    11    10    1
    90    84    83   ar
    91   123   122    2
    92     2     3    1
    93   122   121    1
    94   105   104    2
    95   102   103    1
    96     4     3    2
    97    15    13    1
    98     3     5   am
    99     8     7    2
   100    10    13    1
   101    10     9    1
   102    13    14    1
   103   104   103    1
   104   104   113   am
   105   106   103    1
   106   106   107    1
   107   121   120    1
   108   121   124    1
   109     7     9   am
   110     7     6    1
   111     5     6    1
   112   120   115   am
   113    94    92   ar
   114    94    93   ar
   115   126   124    1
   116    92    90   ar
   117   115   116    2
   118   115   114    1
   119   114   113    1
   120   114   117    1
   121   124   125    1
   122   113   119    1
   123   109   107   ar
   124   109   111   ar
   125   107   108   ar
   126    14    16    1
   127    85    86    1
   128    93    91   ar
   129    86    87    1
   130    86    89    1
   131    90    91   ar
   132    90    89    1
   133    87    88    2
   134   117   118    1
   135   111   112   ar
   136   119   118    1
   137   108   110   ar
   138   112   110   ar
