@<TRIPOS>MOLECULE
tmp/1jk4A00.pdb
 112 111 0 0 0
SMALL
GASTEIGER

@<TRIPOS>ATOM
      1  N         31.0490  -27.4770  -23.7670 N.3     4  CYS4       -0.1235
      2  CA        30.1050  -28.1400  -22.8960 C.3     4  CYS4        0.1677
      3  C         28.8680  -27.2560  -22.6840 C.2     4  CYS4        0.2270
      4  O         28.8810  -26.0610  -23.0050 O.2     4  CYS4       -0.2867
      5  CB        30.7930  -28.4860  -21.5870 C.3     4  CYS4        0.0956
      6  SG        32.3760  -29.3430  -21.8610 S.3     4  CYS4       -0.0801
      7  N         30.1330  -24.6000  -19.2550 N.3    15  CYS15      -0.1221
      8  CA        30.7270  -25.5510  -18.3310 C.3    15  CYS15       0.1808
      9  C         32.1470  -26.0300  -18.6510 C.2    15  CYS15       0.2601
     10  O         32.4710  -26.3430  -19.7980 O.2    15  CYS15      -0.2717
     11  CB        29.7920  -26.7500  -18.1730 C.3    15  CYS15       0.0970
     12  SG        28.1220  -26.2960  -17.6140 S.3    15  CYS15      -0.0800
     13  N         32.9920  -26.0620  -17.6220 N.am   16  PHE16      -0.1962
     14  CA        34.3820  -26.5210  -17.7400 C.3    16  PHE16       0.1771
     15  C         34.5690  -27.8030  -16.9120 C.2    16  PHE16       0.2620
     16  O         35.5100  -28.5630  -17.1270 O.2    16  PHE16      -0.2715
     17  CB        35.3750  -25.4250  -17.2850 C.3    16  PHE16       0.0574
     18  CG        35.6290  -24.3520  -18.3270 C.ar   16  PHE16      -0.0200
     19  CD1       36.7060  -24.4560  -19.2080 C.ar   16  PHE16      -0.0042
     20  CD2       34.7800  -23.2430  -18.4390 C.ar   16  PHE16      -0.0042
     21  CE1       36.9310  -23.4720  -20.1900 C.ar   16  PHE16      -0.0003
     22  CE2       34.9960  -22.2520  -19.4200 C.ar   16  PHE16      -0.0003
     23  CZ        36.0710  -22.3670  -20.2910 C.ar   16  PHE16      -0.0000
     24  N         33.6370  -28.0430  -15.9970 N.am   17  GLY17      -0.1940
     25  CA        33.6840  -29.2200  -15.1500 C.3    17  GLY17       0.1998
     26  C         32.3120  -29.4850  -14.5730 C.2    17  GLY17       0.2480
     27  O         31.4230  -28.6430  -14.6980 O.2    17  GLY17      -0.2729
     28  N         32.0940  -30.6370  -13.9250 N.am   18  PRO18      -0.2726
     29  CA        30.7830  -30.9500  -13.3480 C.3    18  PRO18       0.1402
     30  C         30.2520  -29.8320  -12.4570 C.2    18  PRO18       0.2269
     31  O         29.0440  -29.6100  -12.3820 O.2    18  PRO18      -0.2865
     32  CB        31.0720  -32.2010  -12.5260 C.3    18  PRO18       0.0296
     33  CG        32.1560  -32.8650  -13.3050 C.3    18  PRO18       0.0237
     34  CD        33.0560  -31.7180  -13.6490 C.3    18  PRO18       0.0939
     35  N         25.7700  -28.0860  -15.0170 N.3    38  CYS38      -0.1235
     36  CA        26.9990  -28.6430  -15.5660 C.3    38  CYS38       0.1677
     37  C         27.1300  -30.1480  -15.2940 C.2    38  CYS38       0.2270
     38  O         27.8760  -30.8560  -15.9790 O.2    38  CYS38      -0.2867
     39  CB        28.2120  -27.8690  -15.0290 C.3    38  CYS38       0.0956
     40  SG        28.3200  -26.1360  -15.6030 S.3    38  CYS38      -0.0801
     41  N         26.4570  -32.8160  -18.1210 N.3    41  GLU41      -0.1231
     42  CA        27.4680  -33.2310  -19.0770 C.3    41  GLU41       0.1699
     43  C         27.9420  -34.6460  -18.7940 C.2    41  GLU41       0.2592
     44  O         28.2680  -35.3950  -19.7170 O.2    41  GLU41      -0.2718
     45  CB        28.6600  -32.2860  -19.0370 C.3    41  GLU41       0.0402
     46  CG        28.5760  -31.1860  -20.0510 C.3    41  GLU41       0.1161
     47  CD        28.6510  -31.6920  -21.4770 C.2    41  GLU41       0.3649
     48  OE1       28.3330  -30.8990  -22.3760 O.co2  41  GLU41      -0.2457
     49  OE2       29.0380  -32.8610  -21.7080 O.co2  41  GLU41      -0.2457
     50  N         27.9570  -35.0100  -17.5140 N.am   42  ASN42      -0.1974
     51  CA        28.3970  -36.3330  -17.0940 C.3    42  ASN42       0.1688
     52  C         27.5400  -37.4120  -17.7420 C.2    42  ASN42       0.2292
     53  O         27.9840  -38.5470  -17.8930 O.2    42  ASN42      -0.2864
     54  CB        28.3350  -36.4680  -15.5640 C.3    42  ASN42       0.1181
     55  CG        29.2390  -35.4730  -14.8440 C.2    42  ASN42       0.2629
     56  OD1       28.9360  -35.0380  -13.7350 O.2    42  ASN42      -0.2716
     57  ND2       30.3540  -35.1130  -15.4740 N.am   42  ASN42      -0.0877
     58  N         26.0040  -37.0040  -20.9550 N.3    44  LEU44      -0.1231
     59  CA        26.1500  -36.9770  -22.4120 C.3    44  LEU44       0.1678
     60  C         27.3880  -37.7870  -22.8300 C.2    44  LEU44       0.2434
     61  O         28.4690  -37.6240  -22.2610 O.2    44  LEU44      -0.2733
     62  CB        26.2530  -35.5280  -22.9100 C.3    44  LEU44       0.0284
     63  CG        25.3040  -34.5230  -22.2370 C.3    44  LEU44       0.0019
     64  CD1       25.4420  -33.1390  -22.8600 C.3    44  LEU44       0.0001
     65  CD2       23.8700  -35.0150  -22.3330 C.3    44  LEU44       0.0001
     66  N         27.2330  -38.7020  -23.8060 N.am   45  PRO45      -0.2718
     67  CA        28.2910  -39.5740  -24.3370 C.3    45  PRO45       0.1535
     68  C         29.4260  -38.8390  -25.0320 C.2    45  PRO45       0.2599
     69  O         30.5960  -39.1680  -24.8610 O.2    45  PRO45      -0.2715
     70  CB        27.5390  -40.4560  -25.3370 C.3    45  PRO45       0.0310
     71  CG        26.1450  -40.5000  -24.7720 C.3    45  PRO45       0.0237
     72  CD        25.9280  -39.0580  -24.3950 C.3    45  PRO45       0.0939
     73  N         29.0540  -37.8820  -25.8700 N.am   46  SER46      -0.1937
     74  CA        30.0130  -37.0900  -26.6180 C.3    46  SER46       0.2040
     75  C         30.9310  -36.2380  -25.7300 C.2    46  SER46       0.2485
     76  O         30.4720  -35.5530  -24.8090 O.2    46  SER46      -0.2729
     77  CB        29.2630  -36.1990  -27.6130 C.3    46  SER46       0.2129
     78  OG        28.1410  -35.5810  -27.0010 O.3    46  SER46      -0.2179
     79  N         32.2530  -36.3110  -25.9740 N.am   47  PRO47      -0.2715
     80  CA        33.2430  -35.5480  -25.2100 C.3    47  PRO47       0.1536
     81  C         33.2130  -34.0710  -25.5920 C.2    47  PRO47       0.2599
     82  O         33.0990  -33.7260  -26.7690 O.2    47  PRO47      -0.2715
     83  CB        34.5610  -36.2020  -25.6280 C.3    47  PRO47       0.0310
     84  CG        34.2930  -36.6110  -27.0250 C.3    47  PRO47       0.0237
     85  CD        32.9200  -37.2310  -26.9090 C.3    47  PRO47       0.0939
     86  N         33.3200  -33.2020  -24.5920 N.am   48  CYS48      -0.1954
     87  CA        33.3090  -31.7610  -24.8240 C.3    48  CYS48       0.1843
     88  C         34.4790  -31.0830  -24.1210 C.2    48  CYS48       0.2625
     89  O         35.0870  -31.6570  -23.2200 O.2    48  CYS48      -0.2714
     90  CB        32.0040  -31.1520  -24.2940 C.3    48  CYS48       0.0997
     91  SG        31.8340  -31.2040  -22.4760 S.3    48  CYS48      -0.0797
     92  N         34.8200  -29.8860  -24.5820 N.am   49  GLN49      -0.1977
     93  CA        35.8650  -29.0910  -23.9550 C.3    49  GLN49       0.1601
     94  C         35.5520  -27.6470  -24.2390 C.2    49  GLN49       0.2287
     95  O         35.3480  -27.2600  -25.3880 O.2    49  GLN49      -0.2864
     96  CB        37.2800  -29.4200  -24.4480 C.3    49  GLN49       0.0394
     97  CG        38.3520  -28.5270  -23.7790 C.3    49  GLN49       0.0908
     98  CD        39.7900  -28.8530  -24.1750 C.2    49  GLN49       0.2608
     99  OE1       40.0780  -29.1640  -25.3320 O.2    49  GLN49      -0.2717
    100  NE2       40.7050  -28.7510  -23.2120 N.am   49  GLN49      -0.0878
    101  N         46.3660  -28.9760  -18.2610 N.3    58  GLY58      -0.1225
    102  CA        45.2390  -29.3450  -19.0980 C.3    58  GLY58       0.1811
    103  C         44.0430  -28.4220  -18.9980 C.2    58  GLY58       0.2280
    104  O         42.9050  -28.8490  -19.1890 O.2    58  GLY58      -0.2866
    105  N         38.5190  -29.4560  -15.7200 N.3    70  ASP70      -0.1239
    106  CA        37.2520  -29.9920  -15.2180 C.3    70  ASP70       0.1674
    107  C         37.0560  -30.0380  -13.7080 C.2    70  ASP70       0.2266
    108  O         35.9740  -30.3860  -13.2410 O.2    70  ASP70      -0.2867
    109  CB        36.9810  -31.3800  -15.8160 C.3    70  ASP70       0.1410
    110  CG        38.0600  -32.3970  -15.4760 C.2    70  ASP70       0.3668
    111  OD1       38.1270  -33.4470  -16.1600 O.co2  70  ASP70      -0.2456
    112  OD2       38.8460  -32.1500  -14.5290 O.co2  70  ASP70      -0.2456
@<TRIPOS>BOND
     1    77    78    1
     2    77    74    1
     3    84    85    1
     4    84    83    1
     5    85    79    1
     6    82    81    2
     7    74    73    1
     8    74    75    1
     9    79    75   am
    10    79    80    1
    11    73    68   am
    12    75    76    2
    13    83    80    1
    14    81    80    1
    15    81    86   am
    16    95    94    2
    17    70    71    1
    18    70    67    1
    19    99    98    2
    20    68    69    2
    21    68    67    1
    22    87    86    1
    23    87    90    1
    24    87    88    1
    25    71    72    1
    26    92    88   am
    27    92    93    1
    28    96    93    1
    29    96    97    1
    30    72    66    1
    31    67    66    1
    32    90    91    1
    33    94    93    1
    34    98    97    1
    35    98   100   am
    36    88    89    2
    37    66    60   am
    38     1     2    1
    39     4     3    2
    40    62    59    1
    41    62    63    1
    42     2     3    1
    43     2     5    1
    44    64    63    1
    45    60    59    1
    46    60    61    2
    47    91     6    1
    48    59    58    1
    49    48    47   ar
    50    65    63    1
    51     6     5    1
    52    49    47   ar
    53    47    46    1
    54    23    21   ar
    55    23    22   ar
    56    21    19   ar
    57    46    45    1
    58    10     9    2
    59    44    43    2
    60    22    20   ar
    61     7     8    1
    62    19    18   ar
    63   104   103    2
    64   102   103    1
    65   102   101    1
    66    42    45    1
    67    42    43    1
    68    42    41    1
    69    43    50   am
    70     9     8    1
    71     9    13   am
    72    20    18   ar
    73     8    11    1
    74    18    17    1
    75    11    12    1
    76    53    52    2
    77    52    51    1
    78    14    13    1
    79    14    17    1
    80    14    15    1
    81    12    40    1
    82    50    51    1
    83    16    15    2
    84    51    54    1
    85    15    24   am
    86   111   110   ar
    87    24    25    1
    88    38    37    2
    89   109   110    1
    90   109   106    1
    91   105   106    1
    92    40    39    1
    93    36    37    1
    94    36    39    1
    95    36    35    1
    96    54    55    1
    97   110   112   ar
    98    57    55   am
    99   106   107    1
   100    25    26    1
   101    55    56    2
   102    27    26    2
   103    26    28   am
   104    28    34    1
   105    28    29    1
   106   107   108    2
   107    34    33    1
   108    29    32    1
   109    29    30    1
   110    33    32    1
   111    30    31    2
