@<TRIPOS>MOLECULE
tmp/1jkiA00.pdb
 140 125 0 0 0
SMALL
GASTEIGER

@<TRIPOS>ATOM
      1  N        -15.7580   48.9150    9.4700 N.3   239  THR239     -0.1218
      2  CA       -14.5600   49.4720   10.1930 C.3   239  THR239      0.1862
      3  C        -14.4060   50.9710   10.0060 C.2   239  THR239      0.2287
      4  O        -14.3730   51.4500    8.9090 O.2   239  THR239     -0.2866
      5  CB       -13.2900   48.6980    9.6760 C.3   239  THR239      0.1770
      6  OG1      -13.3590   47.3910   10.1970 O.3   239  THR239     -0.2211
      7  CG2      -12.0140   49.3180   10.0930 C.3   239  THR239      0.0375
      8  N        -12.4290   44.5420   17.6690 N.3   312  ASP312     -0.1225
      9  CA       -12.4380   43.5990   16.5020 C.3   312  ASP312      0.1805
     10  C        -12.8030   42.1810   16.7810 C.2   312  ASP312      0.2597
     11  O        -12.4500   41.5840   17.7620 O.2   312  ASP312     -0.2718
     12  CB       -11.1170   43.5490   15.6940 C.3   312  ASP312      0.1424
     13  CG       -11.3390   43.3330   14.1240 C.2   312  ASP312      0.3668
     14  OD1      -11.7680   42.2540   13.6080 O.co2 312  ASP312     -0.2456
     15  OD2      -11.0730   44.3100   13.4310 O.co2 312  ASP312     -0.2456
     16  N        -13.5270   41.6750   15.8370 N.am  313  LEU313     -0.1979
     17  CA       -14.0610   40.3800   15.8090 C.3   313  LEU313      0.1596
     18  C        -12.9020   39.5290   15.6030 C.2   313  LEU313      0.2287
     19  O        -12.2670   39.6920   14.6270 O.2   313  LEU313     -0.2864
     20  CB       -14.9000   40.4160   14.6040 C.3   313  LEU313      0.0297
     21  CG       -15.9720   39.4400   14.2530 C.3   313  LEU313      0.0022
     22  CD1      -15.4490   38.0270   13.9870 C.3   313  LEU313      0.0001
     23  CD2      -17.0010   39.7060   15.2850 C.3   313  LEU313      0.0001
     24  N        -11.1160   36.8330   14.2300 N.3   315  SER315     -0.1217
     25  CA       -11.0670   35.8700   13.1830 C.3   315  SER315      0.1889
     26  C        -11.4770   34.4200   13.2900 C.2   315  SER315      0.2288
     27  O        -12.6180   34.0370   13.5970 O.2   315  SER315     -0.2866
     28  CB        -9.6640   35.8560   12.6640 C.3   315  SER315      0.2089
     29  OG        -9.6740   36.1310   11.2440 O.3   315  SER315     -0.2183
     30  N         -8.6970   33.0320   11.3370 N.3   317  GLN317     -0.1231
     31  CA        -7.3740   33.0230   10.7200 C.3   317  GLN317      0.1698
     32  C         -6.4010   33.6110   11.7780 C.2   317  GLN317      0.2592
     33  O         -5.3140   33.0700   12.0020 O.2   317  GLN317     -0.2718
     34  CB        -7.2010   33.9230    9.4460 C.3   317  GLN317      0.0381
     35  CG        -5.6120   34.2430    9.1040 C.3   317  GLN317      0.0905
     36  CD        -5.2310   35.5580    8.2290 C.2   317  GLN317      0.2608
     37  OE1       -4.1230   35.6280    7.5420 O.2   317  GLN317     -0.2717
     38  NE2       -6.1300   36.5810    8.2610 N.am  317  GLN317     -0.0878
     39  N         -6.7580   34.7590   12.3380 N.am  318  THR318     -0.1953
     40  CA        -5.9320   35.4340   13.3210 C.3   318  THR318      0.1897
     41  C         -5.8870   34.6680   14.6620 C.2   318  THR318      0.2313
     42  O         -4.9770   34.7830   15.4590 O.2   318  THR318     -0.2863
     43  CB        -6.4880   36.8000   13.5660 C.3   318  THR318      0.1794
     44  OG1       -6.3260   37.5910   12.3810 O.3   318  THR318     -0.2208
     45  CG2       -5.7890   37.4600   14.7670 C.3   318  THR318      0.0378
     46  N         -3.9200   38.1530    2.7170 N.3   342  ASN342     -0.1240
     47  CA        -5.3930   38.0010    2.6190 C.3   342  ASN342      0.1653
     48  C         -6.2160   38.6440    1.4570 C.2   342  ASN342      0.2266
     49  O         -5.9710   39.7920    1.1240 O.2   342  ASN342     -0.2867
     50  CB        -6.0080   38.6130    3.8960 C.3   342  ASN342      0.1155
     51  CG        -6.3670   37.5820    4.9010 C.2   342  ASN342      0.2627
     52  OD1       -5.8570   37.5220    6.0650 O.2   342  ASN342     -0.2716
     53  ND2       -7.2660   36.7250    4.4560 N.am  342  ASN342     -0.0877
     54  N        -10.5690   38.7060   -0.0800 N.3   344  LEU344     -0.1245
     55  CA       -11.9990   38.3260    0.0770 C.3   344  LEU344      0.1561
     56  C        -12.7310   39.3610   -0.8550 C.2   344  LEU344      0.2260
     57  O        -12.1780   40.4680   -1.1000 O.2   344  LEU344     -0.2867
     58  CB       -12.4100   38.5200    1.5570 C.3   344  LEU344      0.0270
     59  CG       -12.3630   39.9450    2.0980 C.3   344  LEU344      0.0019
     60  CD1      -12.9880   39.9450    3.6320 C.3   344  LEU344      0.0001
     61  CD2      -10.8410   40.4940    2.0940 C.3   344  LEU344      0.0001
     62  N        -16.1250   40.9010   -0.4140 N.3   346  ASN346     -0.1240
     63  CA       -17.3930   41.3630    0.1300 C.3   346  ASN346      0.1653
     64  C        -17.2560   42.8320    0.4130 C.2   346  ASN346      0.2266
     65  O        -16.1700   43.3860    0.1250 O.2   346  ASN346     -0.2867
     66  CB       -17.8370   40.5140    1.3760 C.3   346  ASN346      0.1155
     67  CG       -16.7060   40.2810    2.4830 C.2   346  ASN346      0.2627
     68  OD1      -15.7440   41.0520    2.5950 O.2   346  ASN346     -0.2716
     69  ND2      -16.8710   39.2200    3.3030 N.am  346  ASN346     -0.0877
     70  N        -17.0440   44.3650    3.1790 N.3   348  ASP348     -0.1225
     71  CA       -16.1910   44.1540    4.3050 C.3   348  ASP348      0.1805
     72  C        -14.7300   44.4450    3.6890 C.2   348  ASP348      0.2598
     73  O        -14.0410   45.3970    4.0900 O.2   348  ASP348     -0.2718
     74  CB       -16.6380   42.7010    4.5750 C.3   348  ASP348      0.1424
     75  CG       -18.1970   42.3970    3.9700 C.2   348  ASP348      0.3668
     76  OD1      -18.7810   41.2390    3.9630 O.co2 348  ASP348     -0.2456
     77  OD2      -18.8790   43.3920    3.5080 O.co2 348  ASP348     -0.2456
     78  N        -14.3270   43.7050    2.6450 N.am  349  GLY349     -0.1957
     79  CA       -13.0160   43.9050    2.0100 C.3   349  GLY349      0.1869
     80  C        -12.9700   45.0790    1.0720 C.2   349  GLY349      0.2309
     81  O        -11.9370   45.6210    0.7460 O.2   349  GLY349     -0.2863
     82  N        -12.2990   47.7010    3.5360 N.3   352  LEU352     -0.1245
     83  CA       -10.9250   47.6560    4.0500 C.3   352  LEU352      0.1561
     84  C         -9.9450   48.1250    2.9900 C.2   352  LEU352      0.2260
     85  O         -8.8550   48.6060    3.3860 O.2   352  LEU352     -0.2867
     86  CB       -10.5110   46.2660    4.5500 C.3   352  LEU352      0.0270
     87  CG       -11.2770   45.6010    5.7280 C.3   352  LEU352      0.0019
     88  CD1      -10.7140   44.2220    5.9780 C.3   352  LEU352      0.0001
     89  CD2      -11.1870   46.4530    7.0160 C.3   352  LEU352      0.0001
     90  N         -7.3310   47.6630   11.1200 N.3   361  LYS361     -0.1245
     91  CA        -7.1700   46.2350   11.1050 C.3   361  LYS361      0.1561
     92  C         -5.6810   45.9720   11.3920 C.2   361  LYS361      0.2260
     93  O         -5.3330   45.1950   12.3000 O.2   361  LYS361     -0.2867
     94  CB        -7.5680   45.6630    9.7470 C.3   361  LYS361      0.0271
     95  CG        -8.2510   44.3440    9.9070 C.3   361  LYS361      0.0035
     96  CD        -9.6970   44.5840   10.1680 C.3   361  LYS361      0.0206
     97  CE       -10.4160   43.3220   10.5810 C.3   361  LYS361      0.1093
     98  NZ       -11.9010   43.5420   10.4500 N.3   361  LYS361     -0.1314
     99  N          0.9650   42.2290    7.3300 N.3   392  ILE392     -0.1245
    100  CA        -0.4860   42.0030    7.0850 C.3   392  ILE392      0.1561
    101  C         -0.9230   42.6170    5.6990 C.2   392  ILE392      0.2260
    102  O         -0.7010   43.8360    5.4190 O.2   392  ILE392     -0.2867
    103  CB        -1.3460   42.5780    8.3230 C.3   392  ILE392      0.0252
    104  CG1       -1.3860   41.5510    9.4780 C.3   392  ILE392      0.0019
    105  CG2       -2.7140   42.9310    7.9460 C.3   392  ILE392      0.0019
    106  CD1        0.0090   41.1830   10.0310 C.3   392  ILE392      0.0001
    107  N         -4.2630   42.6020    3.1310 N.3   394  ILE394     -0.1245
    108  CA        -5.7030   42.4230    2.8920 C.3   394  ILE394      0.1561
    109  C         -6.0750   43.0580    1.5640 C.2   394  ILE394      0.2260
    110  O         -6.1990   44.2730    1.4780 O.2   394  ILE394     -0.2867
    111  CB        -6.6180   43.1700    3.9380 C.3   394  ILE394      0.0252
    112  CG1       -6.3390   42.6170    5.3480 C.3   394  ILE394      0.0019
    113  CG2       -8.1230   42.8990    3.5830 C.3   394  ILE394      0.0019
    114  CD1       -7.2620   43.0810    6.4230 C.3   394  ILE394      0.0001
    115  N        -12.9820   33.9860    2.1680 N.3   404  LYS404     -0.1245
    116  CA       -11.7760   34.7150    2.5240 C.3   404  LYS404      0.1561
    117  C        -10.7430   33.6420    2.2750 C.2   404  LYS404      0.2260
    118  O        -10.9250   32.4990    2.6920 O.2   404  LYS404     -0.2867
    119  CB       -11.8820   35.1390    3.9680 C.3   404  LYS404      0.0271
    120  CG       -10.9110   36.1890    4.2530 C.3   404  LYS404      0.0035
    121  CD       -10.1030   35.6750    5.4870 C.3   404  LYS404      0.0206
    122  CE        -9.8540   36.9270    6.1750 C.3   404  LYS404      0.1093
    123  NZ       -10.3570   38.0140    5.1390 N.3   404  LYS404     -0.1314
    124  N        -16.1600   33.7610    5.3950 N.3   430  ASP430     -0.1295
    125  CA       -15.8480   34.5010    6.4890 C.3   430  ASP430      0.1359
    126  C        -16.9880   34.7490    7.5760 C.3   430  ASP430      0.2015
    127  O        -16.8560   34.4350    8.8270 O.3   430  ASP430     -0.2188
    128  CB       -15.1990   35.7310    5.9370 C.3   430  ASP430      0.1357
    129  CG       -13.9640   36.1120    6.7350 C.2   430  ASP430      0.3664
    130  OD1      -13.6120   37.3160    6.7770 O.co2 430  ASP430     -0.2456
    131  OD2      -13.3660   35.1560    7.3340 O.co2 430  ASP430     -0.2456
    132  N         -9.8240   40.2340   18.5430 N.3   481  LYS481     -0.1245
    133  CA        -8.3910   40.4270   18.0760 C.3   481  LYS481      0.1561
    134  C         -7.5040   41.3950   18.8780 C.2   481  LYS481      0.2260
    135  O         -6.3340   41.0910   19.1620 O.2   481  LYS481     -0.2867
    136  CB        -8.3560   40.8350   16.5780 C.3   481  LYS481      0.0271
    137  CG        -6.9550   40.6670   15.9190 C.3   481  LYS481      0.0035
    138  CD        -6.8300   41.2470   14.4920 C.3   481  LYS481      0.0206
    139  CE        -7.6920   42.4770   14.2610 C.3   481  LYS481      0.1093
    140  NZ        -8.8480   42.1020   13.4230 N.3   481  LYS481     -0.1314
@<TRIPOS>BOND
     1    57    56    2
     2    56    55    1
     3    62    63    1
     4    54    55    1
     5    55    58    1
     6    65    64    2
     7    63    64    1
     8    63    66    1
     9    81    80    2
    10    80    79    1
    11    49    48    2
    12    66    67    1
    13    48    47    1
    14   110   109    2
    15    58    59    1
    16   109   108    1
    17    79    78    1
    18    61    59    1
    19    59    60    1
    20   115   116    1
    21   117   116    1
    22   117   118    2
    23    67    68    2
    24    67    69   am
    25   116   119    1
    26    47    46    1
    27    47    50    1
    28    78    72   am
    29   108   107    1
    30   108   111    1
    31    84    85    2
    32    84    83    1
    33    70    71    1
    34    77    75   ar
    35    82    83    1
    36   113   111    1
    37    72    73    2
    38    72    71    1
    39    50    51    1
    40   111   112    1
    41    76    75   ar
    42   119   120    1
    43    75    74    1
    44    83    86    1
    45   120   121    1
    46    71    74    1
    47    53    51   am
    48    86    87    1
    49    51    52    2
    50   123   122    1
    51   112   114    1
    52   124   125    1
    53   102   101    2
    54   121   122    1
    55   101   100    1
    56    87    88    1
    57    87    89    1
    58   128   125    1
    59   128   129    1
    60   125   126    1
    61   129   130   ar
    62   129   131   ar
    63   100    99    1
    64   100   103    1
    65    37    36    2
    66   126   127    1
    67   105   103    1
    68    36    38   am
    69    36    35    1
    70   103   104    1
    71     4     3    2
    72    35    34    1
    73    34    31    1
    74     1     2    1
    75   104   106    1
    76     5     7    1
    77     5     2    1
    78     5     6    1
    79    94    95    1
    80    94    91    1
    81    95    96    1
    82     3     2    1
    83    96    97    1
    84    98    97    1
    85    31    30    1
    86    31    32    1
    87    91    90    1
    88    91    92    1
    89    29    28    1
    90    92    93    2
    91    32    33    2
    92    32    39   am
    93    39    40    1
    94    44    43    1
    95    28    25    1
    96    25    26    1
    97    25    24    1
    98    26    27    2
    99    40    43    1
   100    40    41    1
   101   140   139    1
   102    15    13   ar
   103    43    45    1
   104    14    13   ar
   105    22    21    1
   106    13    12    1
   107    21    20    1
   108    21    23    1
   109   139   138    1
   110   138   137    1
   111    20    17    1
   112    19    18    2
   113    41    42    2
   114    18    17    1
   115    12     9    1
   116    17    16    1
   117    16    10   am
   118   137   136    1
   119     9    10    1
   120     9     8    1
   121   136   133    1
   122    10    11    2
   123   133   132    1
   124   133   134    1
   125   134   135    2
