@<TRIPOS>MOLECULE
tmp/1jklA00.pdb
 178 164 0 0 0
SMALL
GASTEIGER

@<TRIPOS>ATOM
      1  N         17.5680   31.9850   13.2240 N.3    18  LEU18      -0.1231
      2  CA        18.2530   30.8460   13.8280 C.3    18  LEU18       0.1693
      3  C         19.5590   31.2190   14.5090 C.2    18  LEU18       0.2593
      4  O         19.8610   30.7340   15.6010 O.2    18  LEU18      -0.2718
      5  CB        18.5250   29.7840   12.7640 C.3    18  LEU18       0.0284
      6  CG        17.2760   29.1960   12.1100 C.3    18  LEU18       0.0019
      7  CD1       17.6630   28.3400   10.9140 C.3    18  LEU18       0.0001
      8  CD2       16.5150   28.3840   13.1410 C.3    18  LEU18       0.0001
      9  N         20.3350   32.0760   13.8560 N.am   19  GLY19      -0.1942
     10  CA        21.6090   32.4900   14.4120 C.3    19  GLY19       0.2014
     11  C         22.0290   33.8540   13.9070 C.2    19  GLY19       0.2640
     12  O         21.6190   34.2770   12.8300 O.2    19  GLY19      -0.2714
     13  N         22.8530   34.5400   14.6910 N.am   20  SER20      -0.1935
     14  CA        23.3260   35.8700   14.3350 C.3    20  SER20       0.2055
     15  C         24.8340   35.9700   14.5490 C.2    20  SER20       0.2644
     16  O         25.3280   35.7500   15.6560 O.2    20  SER20      -0.2714
     17  CB        22.6040   36.9190   15.1880 C.3    20  SER20       0.2130
     18  OG        23.0140   38.2330   14.8550 O.3    20  SER20      -0.2179
     19  N         25.5580   36.2970   13.4820 N.am   21  GLY21      -0.1939
     20  CA        27.0020   36.4200   13.5690 C.3    21  GLY21       0.2014
     21  C         27.4660   37.8490   13.3640 C.2    21  GLY21       0.2639
     22  O         26.6500   38.7690   13.3020 O.2    21  GLY21      -0.2714
     23  N         28.7760   38.0420   13.2540 N.am   22  GLN22      -0.1963
     24  CA        29.3250   39.3790   13.0620 C.3    22  GLN22       0.1733
     25  C         28.9930   39.9320   11.6810 C.2    22  GLN22       0.2616
     26  O         28.6040   41.0930   11.5500 O.2    22  GLN22      -0.2715
     27  CB        30.8430   39.3690   13.2600 C.3    22  GLN22       0.0408
     28  CG        31.4840   40.7470   13.1460 C.3    22  GLN22       0.0908
     29  CD        32.9760   40.7290   13.4200 C.2    22  GLN22       0.2608
     30  OE1       33.6370   41.7660   13.3820 O.2    22  GLN22      -0.2717
     31  NE2       33.5150   39.5480   13.6970 N.am   22  GLN22      -0.0878
     32  N         29.1420   39.1020   10.6530 N.am   23  PHE23      -0.1960
     33  CA        28.8550   39.5360    9.2900 C.3    23  PHE23       0.1771
     34  C         27.7900   38.6810    8.6170 C.2    23  PHE23       0.2619
     35  O         27.6440   38.7160    7.3950 O.2    23  PHE23      -0.2715
     36  CB        30.1290   39.5050    8.4420 C.3    23  PHE23       0.0574
     37  CG        31.2240   40.3930    8.9560 C.ar   23  PHE23      -0.0200
     38  CD1       31.0050   41.7540    9.1370 C.ar   23  PHE23      -0.0042
     39  CD2       32.4760   39.8690    9.2560 C.ar   23  PHE23      -0.0042
     40  CE1       32.0200   42.5840    9.6110 C.ar   23  PHE23      -0.0003
     41  CE2       33.4990   40.6890    9.7300 C.ar   23  PHE23      -0.0003
     42  CZ        33.2700   42.0490    9.9080 C.ar   23  PHE23      -0.0000
     43  N         27.0470   37.9130    9.4080 N.am   24  ALA24      -0.1977
     44  CA        26.0130   37.0560    8.8460 C.3    24  ALA24       0.1597
     45  C         24.8530   36.8160    9.8010 C.2    24  ALA24       0.2287
     46  O         25.0060   36.8580   11.0230 O.2    24  ALA24      -0.2864
     47  CB        26.6180   35.7180    8.4250 C.3    24  ALA24       0.0319
     48  N         21.3040   34.1810   10.0650 N.3    26  VAL26      -0.1245
     49  CA        20.6260   33.0260    9.4900 C.3    26  VAL26       0.1561
     50  C         19.1640   33.0080    9.9070 C.2    26  VAL26       0.2260
     51  O         18.8480   33.1020   11.0910 O.2    26  VAL26      -0.2867
     52  CB        21.3110   31.7210    9.9380 C.3    26  VAL26       0.0252
     53  CG1       20.6370   30.5120    9.2780 C.3    26  VAL26       0.0019
     54  CG2       22.7890   31.7750    9.5690 C.3    26  VAL26       0.0019
     55  N         17.4580   27.0160    5.7520 N.3    39  ALA39      -0.1245
     56  CA        18.0510   28.0270    6.6110 C.3    39  ALA39       0.1562
     57  C         18.7530   28.9850    5.6530 C.2    39  ALA39       0.2260
     58  O         19.6860   28.5920    4.9530 O.2    39  ALA39      -0.2867
     59  CB        19.0540   27.3880    7.5680 C.3    39  ALA39       0.0290
     60  N         21.2050   31.8730    5.0100 N.3    41  LYS41      -0.1245
     61  CA        22.3250   32.5740    5.6280 C.3    41  LYS41       0.1561
     62  C         22.6680   33.8180    4.8100 C.2    41  LYS41       0.2260
     63  O         23.1030   33.7180    3.6610 O.2    41  LYS41      -0.2867
     64  CB        23.5380   31.6420    5.7060 C.3    41  LYS41       0.0271
     65  CG        24.7690   32.2450    6.3690 C.3    41  LYS41       0.0035
     66  CD        25.8840   31.2100    6.4780 C.3    41  LYS41       0.0206
     67  CE        27.1390   31.7780    7.1290 C.3    41  LYS41       0.1093
     68  NZ        28.1820   30.7250    7.2900 N.3    41  LYS41      -0.1314
     69  N         25.0720   36.7210    4.2000 N.3    43  ILE43      -0.1245
     70  CA        26.4390   37.1680    4.4610 C.3    43  ILE43       0.1561
     71  C         26.6380   38.5660    3.8870 C.2    43  ILE43       0.2260
     72  O         26.4580   38.7910    2.6900 O.2    43  ILE43      -0.2867
     73  CB        27.4780   36.2220    3.8180 C.3    43  ILE43       0.0252
     74  CG1       27.2360   34.7840    4.2860 C.3    43  ILE43       0.0019
     75  CG2       28.8910   36.6830    4.1790 C.3    43  ILE43       0.0019
     76  CD1       28.2350   33.7760    3.7490 C.3    43  ILE43       0.0001
     77  N         32.3280   40.4880    4.3570 N.3    55  VAL55      -0.1245
     78  CA        33.2100   39.3930    3.9890 C.3    55  VAL55       0.1561
     79  C         33.6450   39.5760    2.5370 C.2    55  VAL55       0.2260
     80  O         32.8340   39.9230    1.6760 O.2    55  VAL55      -0.2867
     81  CB        32.4780   38.0430    4.1360 C.3    55  VAL55       0.0252
     82  CG1       33.4510   36.8950    3.9460 C.3    55  VAL55       0.0019
     83  CG2       31.7910   37.9750    5.5010 C.3    55  VAL55       0.0019
     84  N         33.5880   29.5500    0.7050 N.3    63  GLU63      -0.1245
     85  CA        32.5910   28.8450    1.5100 C.3    63  GLU63       0.1567
     86  C         31.5610   28.1740    0.5970 C.2    63  GLU63       0.2260
     87  O         31.1960   27.0150    0.7960 O.2    63  GLU63      -0.2867
     88  CB        31.8860   29.8110    2.4710 C.3    63  GLU63       0.0388
     89  CG        30.8310   29.1250    3.3510 C.3    63  GLU63       0.1160
     90  CD        30.1920   30.0380    4.3900 C.2    63  GLU63       0.3649
     91  OE1       30.6880   31.1620    4.6150 O.co2  63  GLU63      -0.2457
     92  OE2       29.1850   29.6170    5.0010 O.co2  63  GLU63      -0.2457
     93  N         26.1230   19.8630    6.7480 N.3    76  ILE76      -0.1245
     94  CA        25.0610   20.6540    6.1490 C.3    76  ILE76       0.1561
     95  C         25.2600   20.7020    4.6360 C.2    76  ILE76       0.2260
     96  O         26.3910   20.6530    4.1500 O.2    76  ILE76      -0.2867
     97  CB        25.0770   22.0890    6.7260 C.3    76  ILE76       0.0252
     98  CG1       23.6820   22.6890    6.6440 C.3    76  ILE76       0.0019
     99  CG2       26.0780   22.9540    5.9920 C.3    76  ILE76       0.0019
    100  CD1       22.7000   21.9660    7.5080 C.3    76  ILE76       0.0001
    101  N         20.6530   27.1170    2.8430 N.3    92  LEU92      -0.1231
    102  CA        21.2260   25.8990    3.3950 C.3    92  LEU92       0.1693
    103  C         20.2080   24.9310    3.9740 C.2    92  LEU92       0.2591
    104  O         19.0820   25.3050    4.2930 O.2    92  LEU92      -0.2718
    105  CB        22.2190   26.2700    4.5010 C.3    92  LEU92       0.0284
    106  CG        23.3370   27.2440    4.1240 C.3    92  LEU92       0.0019
    107  CD1       23.9750   27.8130    5.3810 C.3    92  LEU92       0.0001
    108  CD2       24.3740   26.5260    3.2690 C.3    92  LEU92       0.0001
    109  N         20.6250   23.6780    4.1160 N.am   93  GLU93      -0.1979
    110  CA        19.7700   22.6570    4.7000 C.3    93  GLU93       0.1602
    111  C         19.4270   23.1070    6.1130 C.2    93  GLU93       0.2287
    112  O         20.2980   23.5540    6.8630 O.2    93  GLU93      -0.2864
    113  CB        20.5150   21.3260    4.7300 C.3    93  GLU93       0.0415
    114  CG        19.8690   20.2370    5.5670 C.3    93  GLU93       0.1163
    115  CD        20.6120   18.9280    5.4350 C.2    93  GLU93       0.3649
    116  OE1       21.8440   18.9750    5.2370 O.co2  93  GLU93      -0.2457
    117  OE2       19.9770   17.8580    5.5340 O.co2  93  GLU93      -0.2457
    118  N         18.5280   22.7750    9.9780 N.3    95  VAL95      -0.1245
    119  CA        18.7970   21.9040   11.1110 C.3    95  VAL95       0.1561
    120  C         18.0370   22.6510   12.2010 C.2    95  VAL95       0.2260
    121  O         18.4760   23.7080   12.6480 O.2    95  VAL95      -0.2867
    122  CB        20.3010   21.8360   11.4510 C.3    95  VAL95       0.0252
    123  CG1       20.5620   20.6470   12.3500 C.3    95  VAL95       0.0019
    124  CG2       21.1350   21.7250   10.1880 C.3    95  VAL95       0.0019
    125  N         21.6700   24.3800   18.4580 N.3    99  GLU99      -0.1245
    126  CA        23.1000   24.1430   18.6160 C.3    99  GLU99       0.1567
    127  C         23.4150   23.1410   19.7190 C.2    99  GLU99       0.2260
    128  O         22.7380   23.0930   20.7490 O.2    99  GLU99      -0.2867
    129  CB        23.8140   25.4530   18.9490 C.3    99  GLU99       0.0388
    130  CG        23.9580   26.4240   17.7990 C.3    99  GLU99       0.1160
    131  CD        24.4310   27.7830   18.2660 C.2    99  GLU99       0.3649
    132  OE1       25.0810   27.8550   19.3340 O.co2  99  GLU99      -0.2457
    133  OE2       24.1630   28.7810   17.5650 O.co2  99  GLU99      -0.2457
    134  N         29.0320   25.2800   19.0970 N.3   142  GLU142     -0.1231
    135  CA        28.1410   26.2180   18.4230 C.3   142  GLU142      0.1699
    136  C         27.9940   25.9280   16.9290 C.2   142  GLU142      0.2592
    137  O         27.0210   26.3530   16.2990 O.2   142  GLU142     -0.2718
    138  CB        28.6370   27.6520   18.6260 C.3   142  GLU142      0.0402
    139  CG        28.6560   28.0910   20.0920 C.3   142  GLU142      0.1161
    140  CD        29.9920   27.8510   20.7890 C.2   142  GLU142      0.3649
    141  OE1       30.5890   26.7590   20.6350 O.co2 142  GLU142     -0.2457
    142  OE2       30.4440   28.7670   21.5110 O.co2 142  GLU142     -0.2457
    143  N         28.9580   25.2050   16.3650 N.am  143  ASN143     -0.1974
    144  CA        28.9290   24.8660   14.9490 C.3   143  ASN143      0.1688
    145  C         28.5070   23.4250   14.6860 C.2   143  ASN143      0.2292
    146  O         28.8160   22.8550   13.6410 O.2   143  ASN143     -0.2864
    147  CB        30.2930   25.1440   14.3140 C.3   143  ASN143      0.1181
    148  CG        30.5360   26.6270   14.0930 C.2   143  ASN143      0.2629
    149  OD1       31.6710   27.0620   13.9040 O.2   143  ASN143     -0.2716
    150  ND2       29.4630   27.4090   14.1060 N.am  143  ASN143     -0.0877
    151  N         24.9290   21.2930   14.9320 N.3   145  MET145     -0.1245
    152  CA        23.4860   21.3990   15.1310 C.3   145  MET145      0.1570
    153  C         22.7880   20.0480   15.2060 C.2   145  MET145      0.2261
    154  O         23.2180   19.0900   14.5760 O.2   145  MET145     -0.2867
    155  CB        22.8770   22.1780   13.9730 C.3   145  MET145      0.0387
    156  CG        23.4120   23.1360   13.8980 C.3   145  MET145      0.0595
    157  SD        22.4410   24.5180   14.4580 S.3   145  MET145     -0.1393
    158  CE        22.4750   25.4830   13.1130 C.3   145  MET145      0.0692
    159  N         28.0390   22.5540   10.8290 N.3   159  ILE159     -0.1231
    160  CA        27.6890   23.7530   10.0720 C.3   159  ILE159      0.1692
    161  C         28.8240   24.7740   10.0530 C.2   159  ILE159      0.2592
    162  O         29.9090   24.5280   10.5800 O.2   159  ILE159     -0.2718
    163  CB        26.4530   24.4600   10.6680 C.3   159  ILE159      0.0266
    164  CG1       26.7620   24.9480   12.0860 C.3   159  ILE159      0.0019
    165  CG2       25.2620   23.5190   10.6520 C.3   159  ILE159      0.0020
    166  CD1       25.8250   26.0360   12.5780 C.3   159  ILE159      0.0001
    167  N         28.5450   25.9200    9.4300 N.am  160  ASP160     -0.1974
    168  CA        29.4620   27.0580    9.3310 C.3   160  ASP160      0.1709
    169  C         30.8230   26.7790    8.7140 C.2   160  ASP160      0.2293
    170  O         31.8150   26.5630    9.4180 O.2   160  ASP160     -0.2864
    171  CB        29.6590   27.6960   10.7040 C.3   160  ASP160      0.1436
    172  CG        30.3810   29.0300   10.6300 C.2   160  ASP160      0.3671
    173  OD1       30.8160   29.4270    9.5250 O.co2 160  ASP160     -0.2456
    174  OD2       30.5190   29.6840   11.6870 O.co2 160  ASP160     -0.2456
    175  N         32.5560   28.9260    7.0450 N.3   162  GLY162     -0.1225
    176  CA        33.1480   30.2230    6.7590 C.3   162  GLY162      0.1811
    177  C         34.6680   30.2950    6.8300 C.2   162  GLY162      0.2280
    178  O         35.2730   31.2210    6.2880 O.2   162  GLY162     -0.2866
@<TRIPOS>BOND
     1    86    87    2
     2    86    85    1
     3    84    85    1
     4    85    88    1
     5    80    79    2
     6    88    89    1
     7    79    78    1
     8    72    71    2
     9   101   102    1
    10   108   106    1
    11    89    90    1
    12   102   103    1
    13   102   105    1
    14    63    62    2
    15    76    74    1
    16    73    75    1
    17    73    74    1
    18    73    70    1
    19    71    70    1
    20    82    81    1
    21   103   109   am
    22   103   104    2
    23    78    81    1
    24    78    77    1
    25   109   110    1
    26   106   105    1
    27   106   107    1
    28    81    83    1
    29    96    95    2
    30    69    70    1
    31    90    91   ar
    32    90    92   ar
    33    95    94    1
    34   110   113    1
    35   110   111    1
    36   113   114    1
    37    62    61    1
    38    58    57    2
    39    60    61    1
    40   116   115   ar
    41   115   117   ar
    42   115   114    1
    43    61    64    1
    44    57    56    1
    45    64    65    1
    46    55    56    1
    47    99    97    1
    48   111   112    2
    49    94    97    1
    50    94    93    1
    51   178   177    2
    52    65    66    1
    53    66    67    1
    54    56    59    1
    55    98    97    1
    56    98   100    1
    57   176   177    1
    58   176   175    1
    59    67    68    1
    60    35    34    2
    61    47    44    1
    62    36    37    1
    63    36    33    1
    64    34    33    1
    65    34    43   am
    66   169   168    1
    67   169   170    2
    68    44    43    1
    69    44    45    1
    70    37    38   ar
    71    37    39   ar
    72    38    40   ar
    73    39    41   ar
    74    53    52    1
    75    33    32    1
    76   168   167    1
    77   168   171    1
    78   167   161   am
    79    49    50    1
    80    49    52    1
    81    49    48    1
    82   173   172   ar
    83    54    52    1
    84    40    42   ar
    85    41    42   ar
    86    45    46    2
    87    50    51    2
    88   118   119    1
    89   161   160    1
    90   161   162    2
    91   160   163    1
    92   160   159    1
    93   124   122    1
    94   172   171    1
    95   172   174   ar
    96   165   163    1
    97    32    25   am
    98   163   164    1
    99     7     6    1
   100   119   122    1
   101   119   120    1
   102   122   123    1
   103    26    25    2
   104    25    24    1
   105   164   166    1
   106     6     5    1
   107     6     8    1
   108   120   121    2
   109     5     2    1
   110    12    11    2
   111    24    23    1
   112    24    27    1
   113   158   157    1
   114    28    27    1
   115    28    29    1
   116     1     2    1
   117    23    21   am
   118    22    21    2
   119    21    20    1
   120    30    29    2
   121    29    31   am
   122    19    20    1
   123    19    15   am
   124   146   145    2
   125     2     3    1
   126     9    10    1
   127     9     3   am
   128   156   155    1
   129   156   157    1
   130   149   148    2
   131    11    10    1
   132    11    13   am
   133   155   152    1
   134   148   150   am
   135   148   147    1
   136   147   144    1
   137    14    15    1
   138    14    13    1
   139    14    17    1
   140     3     4    2
   141    15    16    2
   142   154   153    2
   143   145   144    1
   144    18    17    1
   145   151   152    1
   146   144   143    1
   147   152   153    1
   148   137   136    2
   149   143   136   am
   150   136   135    1
   151   133   131   ar
   152   130   131    1
   153   130   129    1
   154   131   132   ar
   155   135   138    1
   156   135   134    1
   157   125   126    1
   158   126   129    1
   159   126   127    1
   160   138   139    1
   161   127   128    2
   162   139   140    1
   163   141   140   ar
   164   140   142   ar
