@<TRIPOS>MOLECULE
tmp/1jknA00.pdb
 193 186 0 0 0
SMALL
GASTEIGER

@<TRIPOS>ATOM
      1  N        244.6540    1.4180    0.6880 N.3    16  ASN16      -0.1240
      2  CA       246.0320    1.2590    0.2500 C.3    16  ASN16       0.1653
      3  C        246.6850    0.0600    0.9300 C.2    16  ASN16       0.2266
      4  O        246.3040   -0.3200    2.0340 O.2    16  ASN16      -0.2867
      5  CB       246.8230    2.5350    0.5560 C.3    16  ASN16       0.1155
      6  CG       247.9240    2.7990   -0.4510 C.2    16  ASN16       0.2627
      7  OD1      247.7650    3.6060   -1.3660 O.2    16  ASN16      -0.2716
      8  ND2      249.0510    2.1150   -0.2860 N.am   16  ASN16      -0.0877
      9  N        263.0170    7.3330   -5.8240 N.3    33  ARG33      -0.1245
     10  CA       262.0200    7.9470   -6.6840 C.3    33  ARG33       0.1563
     11  C        262.5820    8.2410   -8.0600 C.2    33  ARG33       0.2260
     12  O        263.7910    8.3960   -8.2370 O.2    33  ARG33      -0.2867
     13  CB       261.5140    9.2500   -6.0710 C.3    33  ARG33       0.0307
     14  CG       260.6220    9.0550   -4.8590 C.3    33  ARG33       0.0489
     15  CD       259.8010   10.3010   -4.5790 C.3    33  ARG33       0.2205
     16  NE       258.3760   10.0880   -4.8270 N.pl3  33  ARG33      -0.0865
     17  CZ       257.5470    9.5250   -3.9500 C.cat  33  ARG33       0.5346
     18  NH1      257.9910    9.1230   -2.7660 N.pl3  33  ARG33       0.1354
     19  NH2      256.2680    9.3640   -4.2590 N.pl3  33  ARG33       0.1354
     20  N        262.2940   12.3400   -7.4040 N.3    36  ILE36      -0.1245
     21  CA       262.9210   12.9500   -6.2410 C.3    36  ILE36       0.1561
     22  C        264.2370   12.2590   -5.9070 C.2    36  ILE36       0.2260
     23  O        264.2500   11.0990   -5.4970 O.2    36  ILE36      -0.2867
     24  CB       261.9950   12.8970   -5.0100 C.3    36  ILE36       0.0252
     25  CG1      260.6520   13.5580   -5.3230 C.3    36  ILE36       0.0019
     26  CG2      262.6530   13.5690   -3.8140 C.3    36  ILE36       0.0019
     27  CD1      259.6780   13.5190   -4.1660 C.3    36  ILE36       0.0001
     28  N        265.1420   10.1280   -2.6830 N.3    39  ALA39      -0.1231
     29  CA       263.8350    9.7920   -2.1440 C.3    39  ALA39       0.1694
     30  C        263.5650    8.3060   -2.3020 C.2    39  ALA39       0.2592
     31  O        263.1410    7.8460   -3.3590 O.2    39  ALA39      -0.2718
     32  CB       262.7450   10.6010   -2.8290 C.3    39  ALA39       0.0304
     33  N        263.8150    7.5610   -1.2390 N.am   40  TRP40      -0.1962
     34  CA       263.6020    6.1200   -1.2520 C.3    40  TRP40       0.1771
     35  C        262.3180    5.7490   -0.5270 C.2    40  TRP40       0.2619
     36  O        261.8280    6.4950    0.3220 O.2    40  TRP40      -0.2715
     37  CB       264.7830    5.3870   -0.6180 C.3    40  TRP40       0.0590
     38  CG       266.1070    5.7760   -1.2040 C.ar   40  TRP40       0.0006
     39  CD1      266.8370    6.8930   -0.9160 C.ar   40  TRP40       0.0946
     40  CD2      266.8570    5.0480   -2.1850 C.ar   40  TRP40       0.0152
     41  NE1      267.9940    6.9070   -1.6590 N.ar   40  TRP40      -0.2442
     42  CE2      268.0290    5.7850   -2.4450 C.ar   40  TRP40       0.0810
     43  CE3      266.6520    3.8460   -2.8680 C.ar   40  TRP40       0.0012
     44  CZ2      268.9900    5.3570   -3.3600 C.ar   40  TRP40       0.0191
     45  CZ3      267.6060    3.4240   -3.7740 C.ar   40  TRP40       0.0001
     46  CH2      268.7620    4.1760   -4.0120 C.ar   40  TRP40       0.0015
     47  N        261.7820    4.5910   -0.8730 N.am   41  GLN41      -0.1977
     48  CA       260.5510    4.1010   -0.2660 C.3    41  GLN41       0.1601
     49  C        260.3020    2.6420   -0.6370 C.2    41  GLN41       0.2287
     50  O        261.1120    2.0160   -1.3210 O.2    41  GLN41      -0.2864
     51  CB       259.3650    4.9620   -0.7060 C.3    41  GLN41       0.0394
     52  CG       259.0200    4.8180   -2.1810 C.3    41  GLN41       0.0908
     53  CD       258.6160    6.1330   -2.8180 C.2    41  GLN41       0.2608
     54  OE1      259.4510    7.0080   -3.0440 O.2    41  GLN41      -0.2717
     55  NE2      257.3300    6.2760   -3.1110 N.am   41  GLN41      -0.0878
     56  N        254.0040    0.1670   -2.8860 N.3    44  GLN44      -0.1231
     57  CA       252.6690    0.2180   -2.2990 C.3    44  GLN44       0.1698
     58  C        251.6270    0.6410   -3.3340 C.2    44  GLN44       0.2593
     59  O        251.9680    1.1670   -4.3930 O.2    44  GLN44      -0.2718
     60  CB       252.6430    1.1840   -1.1100 C.3    44  GLN44       0.0381
     61  CG       253.5000    2.4260   -1.3100 C.3    44  GLN44       0.0905
     62  CD       252.7240    3.7120   -1.1090 C.2    44  GLN44       0.2608
     63  OE1      252.9070    4.6810   -1.8460 O.2    44  GLN44      -0.2717
     64  NE2      251.8530    3.7300   -0.1070 N.am   44  GLN44      -0.0878
     65  N        250.3560    0.4110   -3.0140 N.am   45  GLY45      -0.1942
     66  CA       249.2800    0.7750   -3.9200 C.3    45  GLY45       0.2014
     67  C        247.9820    1.0620   -3.1890 C.2    45  GLY45       0.2639
     68  O        247.8160    0.6680   -2.0370 O.2    45  GLY45      -0.2714
     69  N        247.0630    1.7550   -3.8590 N.am   46  GLY46      -0.1954
     70  CA       245.7880    2.0950   -3.2440 C.3    46  GLY46       0.1869
     71  C        244.7330    1.0080   -3.3880 C.2    46  GLY46       0.2309
     72  O        243.5490    1.3090   -3.5330 O.2    46  GLY46      -0.2863
     73  N        249.0830    7.6280    7.2340 N.3    82  TYR82      -0.1241
     74  CA       249.9700    8.7830    7.2250 C.3    82  TYR82       0.1605
     75  C        249.3120    9.9530    6.5080 C.2    82  TYR82       0.2264
     76  O        248.2650    9.7970    5.8810 O.2    82  TYR82      -0.2867
     77  CB       251.3030    8.4410    6.5530 C.3    82  TYR82       0.0534
     78  CG       251.1840    7.4480    5.4180 C.ar   82  TYR82      -0.0201
     79  CD1      250.8840    6.1160    5.6670 C.ar   82  TYR82      -0.0009
     80  CD2      251.3730    7.8440    4.1000 C.ar   82  TYR82      -0.0009
     81  CE1      250.7760    5.2030    4.6350 C.ar   82  TYR82       0.0417
     82  CE2      251.2680    6.9380    3.0620 C.ar   82  TYR82       0.0417
     83  CZ       250.9690    5.6200    3.3350 C.ar   82  TYR82       0.1957
     84  OH       250.8640    4.7140    2.3040 O.3    82  TYR82      -0.2866
     85  N        250.0790   13.8680    4.2290 N.3    84  PHE84      -0.1241
     86  CA       251.0210   14.6320    3.4200 C.3    84  PHE84       0.1605
     87  C        250.9680   16.1140    3.7830 C.2    84  PHE84       0.2264
     88  O        249.9380   16.6120    4.2360 O.2    84  PHE84      -0.2867
     89  CB       250.7180   14.4460    1.9320 C.3    84  PHE84       0.0534
     90  CG       250.4070   13.0270    1.5520 C.ar   84  PHE84      -0.0203
     91  CD1      251.4270   12.1410    1.2380 C.ar   84  PHE84      -0.0042
     92  CD2      249.0970   12.5770    1.5100 C.ar   84  PHE84      -0.0042
     93  CE1      251.1440   10.8340    0.8890 C.ar   84  PHE84      -0.0003
     94  CE2      248.8100   11.2700    1.1620 C.ar   84  PHE84      -0.0003
     95  CZ       249.8340   10.3980    0.8510 C.ar   84  PHE84      -0.0000
     96  N        252.4040   18.8460   -0.6620 N.3    88  VAL88      -0.1245
     97  CA       252.1440   17.5690   -1.2970 C.3    88  VAL88       0.1561
     98  C        250.6500   17.3760   -1.4800 C.2    88  VAL88       0.2260
     99  O        250.1790   17.0790   -2.5740 O.2    88  VAL88      -0.2867
    100  CB       252.7140   16.4180   -0.4630 C.3    88  VAL88       0.0252
    101  CG1      252.4560   15.0860   -1.1360 C.3    88  VAL88       0.0019
    102  CG2      254.1950   16.6380   -0.2370 C.3    88  VAL88       0.0019
    103  N        249.3620   19.5920   -3.8240 N.3    91  LYS91      -0.1231
    104  CA       249.9270   19.2050   -5.1100 C.3    91  LYS91       0.1693
    105  C        249.2190   17.9740   -5.6600 C.2    91  LYS91       0.2591
    106  O        248.8920   17.9130   -6.8450 O.2    91  LYS91      -0.2718
    107  CB       251.4290   18.9360   -4.9680 C.3    91  LYS91       0.0285
    108  CG       252.0680   18.3330   -6.2100 C.3    91  LYS91       0.0035
    109  CD       252.3400   16.8470   -6.0320 C.3    91  LYS91       0.0206
    110  CE       253.6580   16.4410   -6.6710 C.3    91  LYS91       0.1093
    111  NZ       254.0190   15.0320   -6.3530 N.3    91  LYS91      -0.1314
    112  N        248.9790   16.9970   -4.7940 N.am   92  LEU92      -0.1980
    113  CA       248.3010   15.7730   -5.2020 C.3    92  LEU92       0.1596
    114  C        246.8980   16.0840   -5.6990 C.2    92  LEU92       0.2287
    115  O        246.4710   15.5920   -6.7400 O.2    92  LEU92      -0.2864
    116  CB       248.2270   14.7840   -4.0420 C.3    92  LEU92       0.0297
    117  CG       249.5700   14.2110   -3.5860 C.3    92  LEU92       0.0022
    118  CD1      249.3910   13.3520   -2.3440 C.3    92  LEU92       0.0001
    119  CD2      250.2140   13.4060   -4.7050 C.3    92  LEU92       0.0001
    120  N        247.4820   14.3330   -8.6350 N.3    96  TRP96      -0.1241
    121  CA       246.7940   13.0550   -8.5150 C.3    96  TRP96       0.1605
    122  C        245.2980   13.2180   -8.7630 C.2    96  TRP96       0.2264
    123  O        244.6440   12.3080   -9.2740 O.2    96  TRP96      -0.2867
    124  CB       247.0310   12.4530   -7.1300 C.3    96  TRP96       0.0550
    125  CG       248.3860   11.8310   -6.9800 C.ar   96  TRP96       0.0003
    126  CD1      249.5710   12.3350   -7.4290 C.ar   96  TRP96       0.0946
    127  CD2      248.6950   10.5900   -6.3370 C.ar   96  TRP96       0.0152
    128  NE1      250.5990   11.4840   -7.1050 N.ar   96  TRP96      -0.2442
    129  CE2      250.0870   10.4050   -6.4350 C.ar   96  TRP96       0.0810
    130  CE3      247.9290    9.6170   -5.6870 C.ar   96  TRP96       0.0012
    131  CZ2      250.7290    9.2870   -5.9070 C.ar   96  TRP96       0.0191
    132  CZ3      248.5680    8.5080   -5.1650 C.ar   96  TRP96       0.0001
    133  CH2      249.9550    8.3520   -5.2770 C.ar   96  TRP96       0.0015
    134  N        246.4020    7.7670    3.5150 N.3   103  GLN103     -0.1245
    135  CA       246.0880    6.4240    3.0420 C.3   103  GLN103      0.1566
    136  C        246.4180    5.3700    4.0950 C.2   103  GLN103      0.2260
    137  O        247.5750    5.2090    4.4820 O.2   103  GLN103     -0.2867
    138  CB       246.8600    6.1190    1.7540 C.3   103  GLN103      0.0367
    139  CG       246.7200    7.1890    0.6850 C.3   103  GLN103      0.0905
    140  CD       247.3870    6.8010   -0.6190 C.2   103  GLN103      0.2608
    141  OE1      246.7230    6.4010   -1.5750 O.2   103  GLN103     -0.2717
    142  NE2      248.7090    6.9140   -0.6640 N.am  103  GLN103     -0.0878
    143  N        257.6230    3.9970  -11.2740 N.3   130  GLU130     -0.1245
    144  CA       257.5290    4.9900  -10.2090 C.3   130  GLU130      0.1567
    145  C        258.8960    5.2260   -9.5740 C.2   130  GLU130      0.2260
    146  O        259.1850    6.3170   -9.0810 O.2   130  GLU130     -0.2867
    147  CB       256.5290    4.5360   -9.1450 C.3   130  GLU130      0.0388
    148  CG       255.0770    4.7050   -9.5620 C.3   130  GLU130      0.1160
    149  CD       254.6540    6.1600   -9.6180 C.2   130  GLU130      0.3649
    150  OE1      254.6300    6.8130   -8.5530 O.co2 130  GLU130     -0.2457
    151  OE2      254.3460    6.6470  -10.7260 O.co2 130  GLU130     -0.2457
    152  N        266.1520    6.7530    5.3950 N.3   145  LEU145     -0.1231
    153  CA       265.8030    7.1410    4.0380 C.3   145  LEU145      0.1693
    154  C        264.4000    7.7290    4.0060 C.2   145  LEU145      0.2593
    155  O        264.1290    8.6990    3.3000 O.2   145  LEU145     -0.2718
    156  CB       265.8730    5.9270    3.1120 C.3   145  LEU145      0.0284
    157  CG       267.2530    5.2770    2.9990 C.3   145  LEU145      0.0019
    158  CD1      267.1260    3.7970    2.6600 C.3   145  LEU145      0.0001
    159  CD2      268.0960    5.9970    1.9590 C.3   145  LEU145      0.0001
    160  N        263.5150    7.1230    4.7860 N.am  146  THR146     -0.1939
    161  CA       262.1280    7.5640    4.8710 C.3   146  THR146      0.2028
    162  C        262.0420    9.0100    5.3520 C.2   146  THR146      0.2642
    163  O        263.0090    9.5570    5.8810 O.2   146  THR146     -0.2714
    164  CB       261.3450    6.6510    5.8160 C.3   146  THR146      0.1808
    165  OG1      261.5180    5.2920    5.4580 O.3   146  THR146     -0.2208
    166  CG2      259.8590    6.9360    5.8330 C.3   146  THR146      0.0379
    167  N        260.8770    9.6220    5.1630 N.am  147  VAL147     -0.1977
    168  CA       260.6620   11.0040    5.5760 C.3   147  VAL147      0.1596
    169  C        259.9970   11.0710    6.9510 C.2   147  VAL147      0.2287
    170  O        259.4090   10.0960    7.4180 O.2   147  VAL147     -0.2864
    171  CB       259.8090   11.7690    4.5450 C.3   147  VAL147      0.0276
    172  CG1      258.4680   11.0840    4.3420 C.3   147  VAL147      0.0022
    173  CG2      259.6160   13.2190    4.9650 C.3   147  VAL147      0.0022
    174  N        257.2940   12.3090    8.0020 N.3   149  PHE149     -0.1227
    175  CA       255.8770   11.9520    8.0140 C.3   149  PHE149      0.1736
    176  C        255.6480   10.4950    7.6070 C.2   149  PHE149      0.2595
    177  O        254.5070   10.0410    7.5280 O.2   149  PHE149     -0.2718
    178  CB       255.0700   12.8980    7.1160 C.3   149  PHE149      0.0547
    179  CG       255.2930   12.7100    5.6420 C.ar  149  PHE149     -0.0202
    180  CD1      254.7520   11.6200    4.9760 C.ar  149  PHE149     -0.0042
    181  CD2      256.0320   13.6320    4.9170 C.ar  149  PHE149     -0.0042
    182  CE1      254.9450   11.4540    3.6180 C.ar  149  PHE149     -0.0003
    183  CE2      256.2300   13.4690    3.5590 C.ar  149  PHE149     -0.0003
    184  CZ       255.6860   12.3790    2.9090 C.ar  149  PHE149     -0.0000
    185  N        256.7310    9.7600    7.3650 N.am  150  LYS150     -0.1980
    186  CA       256.6290    8.3540    6.9850 C.3   150  LYS150      0.1596
    187  C        257.5390    7.4810    7.8480 C.2   150  LYS150      0.2287
    188  O        257.6740    6.2820    7.6050 O.2   150  LYS150     -0.2864
    189  CB       256.9820    8.1720    5.5110 C.3   150  LYS150      0.0298
    190  CG       255.7850    8.2860    4.5840 C.3   150  LYS150      0.0038
    191  CD       256.1990    8.2240    3.1210 C.3   150  LYS150      0.0206
    192  CE       255.7300    6.9370    2.4610 C.3   150  LYS150      0.1093
    193  NZ       254.3010    6.6450    2.7620 N.3   150  LYS150     -0.1314
@<TRIPOS>BOND
     1   143   144    1
     2   151   149   ar
     3   144   145    1
     4   144   147    1
     5   149   148    1
     6   149   150   ar
     7   145   146    2
     8   148   147    1
     9   123   122    2
    10   122   121    1
    11   120   121    1
    12   121   124    1
    13    12    11    2
    14    11    10    1
    15   126   128   ar
    16   126   125   ar
    17    20    21    1
    18   124   125    1
    19   128   129   ar
    20   125   127   ar
    21   106   105    2
    22   115   114    2
    23    10    13    1
    24    10     9    1
    25   110   111    1
    26   110   109    1
    27   129   127   ar
    28   129   131   ar
    29   127   130   ar
    30    21    22    1
    31    21    24    1
    32   108   109    1
    33   108   107    1
    34    13    14    1
    35   131   133   ar
    36    22    23    2
    37   114   113    1
    38   130   132   ar
    39   105   104    1
    40   105   112   am
    41    25    24    1
    42    25    27    1
    43   133   132   ar
    44   113   112    1
    45   113   116    1
    46   104   107    1
    47   104   103    1
    48    24    26    1
    49    14    15    1
    50    16    15    1
    51    16    17    2
    52   119   117    1
    53    59    58    2
    54    19    17    1
    55   116   117    1
    56    46    45   ar
    57    46    44   ar
    58    17    18    1
    59    66    67    1
    60    66    65    1
    61    69    70    1
    62    69    67   am
    63    45    43   ar
    64   117   118    1
    65    72    71    2
    66    71    70    1
    67    44    42   ar
    68    31    30    2
    69    58    65   am
    70    58    57    1
    71    67    68    2
    72    55    53   am
    73    54    53    2
    74    56    57    1
    75    43    40   ar
    76    32    29    1
    77    53    52    1
    78    28    29    1
    79    99    98    2
    80    42    40   ar
    81    42    41   ar
    82    30    29    1
    83    30    33   am
    84    57    60    1
    85    40    38   ar
    86    52    51    1
    87    63    62    2
    88    41    39   ar
    89   141   140    2
    90    98    97    1
    91     7     6    2
    92    50    49    2
    93    61    60    1
    94    61    62    1
    95    97    96    1
    96    97   100    1
    97    34    33    1
    98    34    37    1
    99    34    35    1
   100    38    39   ar
   101    38    37    1
   102   101   100    1
   103    62    64   am
   104    47    35   am
   105    47    48    1
   106    51    48    1
   107   142   140   am
   108    49    48    1
   109   140   139    1
   110    35    36    2
   111   100   102    1
   112     6     8   am
   113     6     5    1
   114     2     5    1
   115     2     1    1
   116     2     3    1
   117   139   138    1
   118    95    93   ar
   119    95    94   ar
   120    93    91   ar
   121     3     4    2
   122    94    92   ar
   123    91    90   ar
   124    92    90   ar
   125    90    89    1
   126   138   135    1
   127    89    86    1
   128   159   157    1
   129    84    83    1
   130   192   193    1
   131   192   191    1
   132   158   157    1
   133   184   183   ar
   134   184   182   ar
   135   157   156    1
   136   135   134    1
   137   135   136    1
   138    82    83   ar
   139    82    80   ar
   140   156   153    1
   141   191   190    1
   142   155   154    2
   143    83    81   ar
   144    86    87    1
   145    86    85    1
   146   183   181   ar
   147   182   180   ar
   148    87    88    2
   149   154   153    1
   150   154   160   am
   151   153   152    1
   152   136   137    2
   153    80    78   ar
   154   172   171    1
   155   171   173    1
   156   171   168    1
   157   190   189    1
   158    81    79   ar
   159   160   161    1
   160   161   162    1
   161   161   164    1
   162   181   179   ar
   163   180   179   ar
   164   167   162   am
   165   167   168    1
   166   162   163    2
   167    78    79   ar
   168    78    77    1
   169   165   164    1
   170   189   186    1
   171   168   169    1
   172   179   178    1
   173   164   166    1
   174    76    75    2
   175    75    74    1
   176    77    74    1
   177   169   170    2
   178   186   185    1
   179   186   187    1
   180   178   175    1
   181    74    73    1
   182   185   176   am
   183   177   176    2
   184   188   187    2
   185   176   175    1
   186   174   175    1
