@<TRIPOS>MOLECULE
tmp/1jl8B01.pdb
 171 165 0 0 0
SMALL
GASTEIGER

@<TRIPOS>ATOM
      1  N         23.9280   -9.7630   44.3070 N.3   164  HIS164     -0.1241
      2  CA        23.5000   -8.7520   45.2590 C.3   164  HIS164      0.1621
      3  C         23.5100   -9.2470   46.7140 C.2   164  HIS164      0.2264
      4  O         23.6910   -8.4570   47.6490 O.2   164  HIS164     -0.2867
      5  CB        22.1040   -8.2480   44.8760 C.3   164  HIS164      0.0745
      6  CG        22.0940   -6.8300   44.3950 C.ar  164  HIS164      0.0817
      7  ND1       22.8800   -6.3950   43.3490 N.ar  164  HIS164     -0.2268
      8  CD2       21.4410   -5.7370   44.8550 C.ar  164  HIS164      0.1154
      9  CE1       22.7160   -5.0930   43.1880 C.ar  164  HIS164      0.1986
     10  NE2       21.8490   -4.6700   44.0900 N.ar  164  HIS164     -0.2212
     11  N         23.5130   -6.0110   54.2230 N.3   201  HIS201     -0.1226
     12  CA        24.7120   -6.4280   53.5110 C.3   201  HIS201      0.1752
     13  C         25.6490   -5.2330   53.4630 C.2   201  HIS201      0.2596
     14  O         26.8580   -5.3870   53.6140 O.2   201  HIS201     -0.2718
     15  CB        24.3490   -6.9010   52.0960 C.3   201  HIS201      0.0759
     16  CG        23.0240   -6.3900   51.6080 C.ar  201  HIS201      0.0818
     17  ND1       21.8300   -6.7180   52.2150 N.ar  201  HIS201     -0.2268
     18  CD2       22.7070   -5.5550   50.5890 C.ar  201  HIS201      0.1154
     19  CE1       20.8350   -6.1080   51.5940 C.ar  201  HIS201      0.1986
     20  NE2       21.3400   -5.3960   50.6030 N.ar  201  HIS201     -0.2212
     21  N         25.0730   -4.0540   53.2190 N.am  202  HIS202     -0.1975
     22  CA        25.7940   -2.7770   53.1890 C.3   202  HIS202      0.1656
     23  C         25.5580   -2.1350   54.5510 C.2   202  HIS202      0.2291
     24  O         24.4260   -2.0440   55.0050 O.2   202  HIS202     -0.2864
     25  CB        25.2510   -1.8610   52.0810 C.3   202  HIS202      0.0771
     26  CG        23.7660   -1.6560   52.1270 C.ar  202  HIS202      0.0820
     27  ND1       23.1270   -0.9930   53.1530 N.ar  202  HIS202     -0.2267
     28  CD2       22.7940   -2.0380   51.2660 C.ar  202  HIS202      0.1154
     29  CE1       21.8260   -0.9770   52.9240 C.ar  202  HIS202      0.1986
     30  NE2       21.5980   -1.6040   51.7850 N.ar  202  HIS202     -0.2212
     31  N         25.0910    0.7340   55.6820 N.3   204  TYR204     -0.1241
     32  CA        24.7320    2.1420   55.5530 C.3   204  TYR204      0.1605
     33  C         23.5800    2.5720   56.4500 C.2   204  TYR204      0.2264
     34  O         23.3220    3.7640   56.6150 O.2   204  TYR204     -0.2867
     35  CB        24.4270    2.4510   54.0890 C.3   204  TYR204      0.0534
     36  CG        25.6760    2.5100   53.2330 C.ar  204  TYR204     -0.0201
     37  CD1       26.4550    3.6640   53.1840 C.ar  204  TYR204     -0.0009
     38  CD2       26.0930    1.4060   52.4910 C.ar  204  TYR204     -0.0009
     39  CE1       27.6200    3.7190   52.4140 C.ar  204  TYR204      0.0417
     40  CE2       27.2600    1.4480   51.7170 C.ar  204  TYR204      0.0417
     41  CZ        28.0190    2.6110   51.6820 C.ar  204  TYR204      0.1957
     42  OH        29.1720    2.6810   50.9240 O.3   204  TYR204     -0.2866
     43  N         21.6870    9.8540   58.1240 N.3   244  HIS244     -0.1241
     44  CA        20.6410    8.9450   58.5770 C.3   244  HIS244      0.1621
     45  C         21.1960    7.7120   59.2520 C.2   244  HIS244      0.2264
     46  O         22.3090    7.2760   58.9600 O.2   244  HIS244     -0.2867
     47  CB        19.8050    8.4960   57.3920 C.3   244  HIS244      0.0745
     48  CG        20.6180    8.0870   56.2080 C.ar  244  HIS244      0.0817
     49  ND1       21.7610    7.3240   56.3150 N.ar  244  HIS244     -0.2268
     50  CD2       20.4470    8.3240   54.8870 C.ar  244  HIS244      0.1154
     51  CE1       22.2590    7.1120   55.1100 C.ar  244  HIS244      0.1986
     52  NE2       21.4800    7.7080   54.2260 N.ar  244  HIS244     -0.2212
     53  N         16.2270    8.5130   53.9150 N.3   286  PHE286     -0.1241
     54  CA        17.2870    8.7130   52.9310 C.3   286  PHE286      0.1605
     55  C         16.8440    9.2800   51.5950 C.2   286  PHE286      0.2264
     56  O         16.9190   10.4850   51.3810 O.2   286  PHE286     -0.2867
     57  CB        18.0430    7.4220   52.6450 C.3   286  PHE286      0.0534
     58  CG        19.0060    7.5320   51.4830 C.ar  286  PHE286     -0.0203
     59  CD1       19.1150    6.5050   50.5500 C.ar  286  PHE286     -0.0042
     60  CD2       19.8060    8.6540   51.3270 C.ar  286  PHE286     -0.0042
     61  CE1       20.0050    6.5960   49.4820 C.ar  286  PHE286     -0.0003
     62  CE2       20.6970    8.7530   50.2650 C.ar  286  PHE286     -0.0003
     63  CZ        20.7970    7.7190   49.3380 C.ar  286  PHE286     -0.0000
     64  N         13.7470    8.3740   48.7840 N.3   288  VAL288     -0.1245
     65  CA        12.2980    8.5750   48.6020 C.3   288  VAL288      0.1561
     66  C         11.5740    7.8580   49.7410 C.2   288  VAL288      0.2260
     67  O         11.1400    8.4950   50.7000 O.2   288  VAL288     -0.2867
     68  CB        11.7880    7.9880   47.2590 C.3   288  VAL288      0.0252
     69  CG1       10.4690    8.6440   46.8990 C.3   288  VAL288      0.0019
     70  CG2       12.8040    8.1780   46.1530 C.3   288  VAL288      0.0019
     71  N         12.5020    5.0070   52.1490 N.3   290  VAL290     -0.1245
     72  CA        13.4590    4.0400   52.6500 C.3   290  VAL290      0.1561
     73  C         13.2570    3.9050   54.1470 C.2   290  VAL290      0.2260
     74  O         13.9220    4.5630   54.9260 O.2   290  VAL290     -0.2867
     75  CB        14.8900    4.4840   52.3270 C.3   290  VAL290      0.0252
     76  CG1       15.8340    3.3220   52.4740 C.3   290  VAL290      0.0019
     77  CG2       14.9530    5.0220   50.9180 C.3   290  VAL290      0.0019
     78  N         16.2070    3.6520   56.5730 N.3   293  MET293     -0.1245
     79  CA        17.1460    4.7700   56.6330 C.3   293  MET293      0.1570
     80  C         16.4790    6.0620   57.1210 C.2   293  MET293      0.2261
     81  O         16.2940    7.0190   56.3570 O.2   293  MET293     -0.2867
     82  CB        17.7620    4.9970   55.2550 C.3   293  MET293      0.0387
     83  CG        18.9460    4.0900   54.9900 C.3   293  MET293      0.0595
     84  SD        19.4870    3.9540   53.2680 S.3   293  MET293     -0.1393
     85  CE        19.8850    2.1890   53.2120 C.3   293  MET293      0.0692
     86  N         35.3570    9.9570   55.9580 N.3   323  ARG323     -0.1245
     87  CA        34.8190   10.1870   54.6380 C.3   323  ARG323      0.1563
     88  C         33.3380   10.3150   54.9480 C.2   323  ARG323      0.2260
     89  O         32.7140    9.3590   55.3980 O.2   323  ARG323     -0.2867
     90  CB        35.0680    9.0100   53.7180 C.3   323  ARG323      0.0307
     91  CG        35.4460    9.4680   52.3390 C.3   323  ARG323      0.0489
     92  CD        34.6370    8.7500   51.3210 C.3   323  ARG323      0.2205
     93  NE        33.2340    8.7190   51.7040 N.pl3 323  ARG323     -0.0865
     94  CZ        32.2630    8.3160   50.8950 C.cat 323  ARG323      0.5346
     95  NH1       30.9980    8.3130   51.3150 N.pl3 323  ARG323      0.1354
     96  NH2       32.5650    7.9260   49.6590 N.pl3 323  ARG323      0.1354
     97  N         29.5960   10.4240   54.0890 N.3   325  ASN325     -0.1225
     98  CA        28.6430   10.0350   53.0740 C.3   325  ASN325      0.1785
     99  C         27.4120   10.9270   53.0880 C.2   325  ASN325      0.2597
    100  O         26.9130   11.2990   54.1510 O.2   325  ASN325     -0.2718
    101  CB        28.2270    8.5830   53.2650 C.3   325  ASN325      0.1169
    102  CG        27.3070    8.1110   52.1670 C.2   325  ASN325      0.2627
    103  OD1       26.5990    7.1110   52.3220 O.2   325  ASN325     -0.2716
    104  ND2       27.3080    8.8330   51.0370 N.am  325  ASN325     -0.0877
    105  N         26.9340   11.2620   51.8930 N.am  326  VAL326     -0.1980
    106  CA        25.7560   12.1020   51.7380 C.3   326  VAL326      0.1595
    107  C         25.9540   13.3370   52.5940 C.2   326  VAL326      0.2287
    108  O         25.0060   13.8460   53.1750 O.2   326  VAL326     -0.2864
    109  CB        24.4730   11.3670   52.2440 C.3   326  VAL326      0.0276
    110  CG1       23.2210   11.9780   51.6200 C.3   326  VAL326      0.0022
    111  CG2       24.5720    9.8870   51.9620 C.3   326  VAL326      0.0022
    112  N         31.3580   13.6710   50.6860 N.3   354  GLU354     -0.1245
    113  CA        30.9260   13.0480   49.4470 C.3   354  GLU354      0.1567
    114  C         29.8380   13.9170   48.8520 C.2   354  GLU354      0.2260
    115  O         28.7270   14.0000   49.3910 O.2   354  GLU354     -0.2867
    116  CB        30.3770   11.6560   49.7130 C.3   354  GLU354      0.0388
    117  CG        30.3190   10.7750   48.4630 C.3   354  GLU354      0.1160
    118  CD        29.2320    9.7200   48.5700 C.2   354  GLU354      0.3649
    119  OE1       28.0400   10.0840   48.4200 O.co2 354  GLU354     -0.2457
    120  OE2       29.5620    8.5410   48.8280 O.co2 354  GLU354     -0.2457
    121  N         28.2960   14.8300   44.9060 N.3   356  TRP356     -0.1241
    122  CA        28.2990   14.5650   43.4640 C.3   356  TRP356      0.1605
    123  C         27.8940   15.7880   42.6470 C.2   356  TRP356      0.2264
    124  O         27.2270   15.6670   41.6190 O.2   356  TRP356     -0.2867
    125  CB        27.3540   13.3910   43.1350 C.3   356  TRP356      0.0550
    126  CG        28.0200   12.1500   42.5180 C.ar  356  TRP356      0.0003
    127  CD1       27.5050   11.3470   41.5240 C.ar  356  TRP356      0.0946
    128  CD2       29.2980   11.5800   42.8610 C.ar  356  TRP356      0.0152
    129  NE1       28.3830   10.3240   41.2320 N.ar  356  TRP356     -0.2442
    130  CE2       29.4880   10.4420   42.0360 C.ar  356  TRP356      0.0810
    131  CE3       30.2980   11.9160   43.7820 C.ar  356  TRP356      0.0012
    132  CZ2       30.6490    9.6470   42.1090 C.ar  356  TRP356      0.0191
    133  CZ3       31.4500   11.1230   43.8500 C.ar  356  TRP356      0.0001
    134  CH2       31.6110   10.0060   43.0220 C.ar  356  TRP356      0.0015
    135  N         33.1560    1.1050   43.9840 N.3   420  HIS420     -0.1226
    136  CA        32.3140   -0.0680   44.1830 C.3   420  HIS420      0.1752
    137  C         30.9300    0.0810   43.5670 C.2   420  HIS420      0.2596
    138  O         30.1480   -0.8660   43.5750 O.2   420  HIS420     -0.2718
    139  CB        32.1990   -0.4090   45.6780 C.3   420  HIS420      0.0759
    140  CG        31.7380    0.7250   46.5400 C.ar  420  HIS420      0.0818
    141  ND1       32.3390    1.9650   46.5260 N.ar  420  HIS420     -0.2268
    142  CD2       30.7820    0.7850   47.4980 C.ar  420  HIS420      0.1154
    143  CE1       31.7780    2.7370   47.4400 C.ar  420  HIS420      0.1986
    144  NE2       30.8300    2.0430   48.0450 N.ar  420  HIS420     -0.2212
    145  N         30.6330    1.2640   43.0300 N.am  421  ASP421     -0.1974
    146  CA        29.3330    1.5120   42.4070 C.3   421  ASP421      0.1709
    147  C         29.4510    1.6740   40.9020 C.2   421  ASP421      0.2293
    148  O         28.4440    1.7920   40.2030 O.2   421  ASP421     -0.2864
    149  CB        28.6890    2.7720   42.9810 C.3   421  ASP421      0.1436
    150  CG        28.7250    2.8040   44.4860 C.2   421  ASP421      0.3671
    151  OD1       29.8270    3.0200   45.0400 O.co2 421  ASP421     -0.2456
    152  OD2       27.6530    2.6030   45.1090 O.co2 421  ASP421     -0.2456
    153  N         28.0680   -2.8200   39.7130 N.3   465  ASP465     -0.1239
    154  CA        27.5150   -3.5460   40.8660 C.3   465  ASP465      0.1674
    155  C         26.6530   -4.7200   40.3790 C.2   465  ASP465      0.2266
    156  O         25.7400   -4.5340   39.5720 O.2   465  ASP465     -0.2867
    157  CB        26.6950   -2.5930   41.7210 C.3   465  ASP465      0.1410
    158  CG        26.8670   -2.8500   43.1940 C.2   465  ASP465      0.3668
    159  OD1       26.2170   -2.1540   43.9990 O.co2 465  ASP465     -0.2456
    160  OD2       27.6620   -3.7480   43.5420 O.co2 465  ASP465     -0.2456
    161  N         32.7140   -5.7360   42.6030 N.3   469  ARG469     -0.1245
    162  CA        33.1120   -6.0770   43.9500 C.3   469  ARG469      0.1563
    163  C         33.4440   -7.5640   44.1010 C.2   469  ARG469      0.2260
    164  O         33.0810   -8.2100   45.0930 O.2   469  ARG469     -0.2867
    165  CB        32.0310   -5.6340   44.9440 C.3   469  ARG469      0.0307
    166  CG        30.6090   -6.0010   44.5590 C.3   469  ARG469      0.0489
    167  CD        29.6260   -5.4220   45.5600 C.3   469  ARG469      0.2205
    168  NE        29.5410   -3.9640   45.5010 N.pl3 469  ARG469     -0.0865
    169  CZ        28.9070   -3.2320   46.4090 C.cat 469  ARG469      0.5346
    170  NH1       28.3180   -3.8340   47.4350 N.pl3 469  ARG469      0.1354
    171  NH2       28.8500   -1.9130   46.2930 N.pl3 469  ARG469      0.1354
@<TRIPOS>BOND
     1   156   155    2
     2   153   154    1
     3   148   147    2
     4   155   154    1
     5   154   157    1
     6   147   146    1
     7   129   127   ar
     8   129   130   ar
     9   127   126   ar
    10   124   123    2
    11   157   158    1
    12   130   132   ar
    13   130   128   ar
    14   132   134   ar
    15   146   149    1
    16   146   145    1
    17   126   128   ar
    18   126   125    1
    19   161   162    1
    20   123   122    1
    21   128   131   ar
    22   149   150    1
    23   134   133   ar
    24   145   137   am
    25   125   122    1
    26     9     7   ar
    27     9    10   ar
    28   158   160   ar
    29   158   159   ar
    30     7     6   ar
    31   122   121    1
    32   137   138    2
    33   137   136    1
    34   131   133   ar
    35   162   163    1
    36   162   165    1
    37   135   136    1
    38    10     8   ar
    39   163   164    2
    40   136   139    1
    41     1     2    1
    42     6     8   ar
    43     6     5    1
    44   150   151   ar
    45   150   152   ar
    46   166   165    1
    47   166   167    1
    48     5     2    1
    49     2     3    1
    50   168   167    1
    51   168   169    2
    52   139   140    1
    53    70    68    1
    54   171   169    1
    55   169   170    1
    56   141   140   ar
    57   141   143   ar
    58   140   142   ar
    59     3     4    2
    60    69    68    1
    61    68    65    1
    62   143   144   ar
    63   142   144   ar
    64   119   118   ar
    65   117   118    1
    66   117   116    1
    67   118   120   ar
    68    65    64    1
    69    65    66    1
    70   114   115    2
    71   114   113    1
    72    63    61   ar
    73    63    62   ar
    74   113   116    1
    75   113   112    1
    76    61    59   ar
    77    96    94    1
    78    66    67    2
    79    62    60   ar
    80    59    58   ar
    81    18    20   ar
    82    18    16   ar
    83    20    19   ar
    84    94    95    1
    85    94    93    2
    86    77    75    1
    87    42    41    1
    88   104   102   am
    89    28    30   ar
    90    28    26   ar
    91    92    93    1
    92    92    91    1
    93    60    58   ar
    94    56    55    2
    95    58    57    1
    96    19    17   ar
    97    55    54    1
    98    16    15    1
    99    16    17   ar
   100   110   109    1
   101    41    40   ar
   102    41    39   ar
   103    40    38   ar
   104   106   105    1
   105   106   109    1
   106   106   107    1
   107    30    29   ar
   108   105    99   am
   109   111   109    1
   110    25    26    1
   111    25    22    1
   112    15    12    1
   113    26    27   ar
   114    71    72    1
   115   102   103    2
   116   102   101    1
   117    75    76    1
   118    75    72    1
   119    91    90    1
   120    39    37   ar
   121    38    36   ar
   122   107   108    2
   123    57    54    1
   124    72    73    1
   125    29    27   ar
   126    54    53    1
   127    98    99    1
   128    98   101    1
   129    98    97    1
   130    99   100    2
   131    37    36   ar
   132    22    21    1
   133    22    23    1
   134    85    84    1
   135    21    13   am
   136    36    35    1
   137    84    83    1
   138    13    12    1
   139    13    14    2
   140    12    11    1
   141    90    87    1
   142    35    32    1
   143    73    74    2
   144    52    50   ar
   145    52    51   ar
   146    23    24    2
   147    87    88    1
   148    87    86    1
   149    50    48   ar
   150    88    89    2
   151    83    82    1
   152    51    49   ar
   153    82    79    1
   154    32    31    1
   155    32    33    1
   156    48    49   ar
   157    48    47    1
   158    81    80    2
   159    33    34    2
   160    78    79    1
   161    79    80    1
   162    47    44    1
   163    43    44    1
   164    44    45    1
   165    46    45    2
