@<TRIPOS>MOLECULE
tmp/1jlaA00.pdb
 172 170 0 0 0
SMALL
GASTEIGER

@<TRIPOS>ATOM
      1  N          7.3120  -29.3780   26.7140 N.3    91  PRO91      -0.2116
      2  CA         6.6790  -29.5210   25.4040 C.3    91  PRO91       0.1372
      3  C          5.6880  -28.3870   25.1860 C.2    91  PRO91       0.2244
      4  O          5.2570  -27.7490   26.1410 O.2    91  PRO91      -0.2868
      5  CB         5.9820  -30.8780   25.5060 C.3    91  PRO91       0.0268
      6  CG         6.8200  -31.6260   26.4960 C.3    91  PRO91       0.0207
      7  CD         7.0930  -30.5810   27.5350 C.3    91  PRO91       0.0892
      8  N          2.2770  -31.5900   20.0840 N.3    96  LEU96      -0.1231
      9  CA         1.5870  -32.8400   20.3290 C.3    96  LEU96       0.1693
     10  C          0.8570  -33.2600   19.0690 C.2    96  LEU96       0.2591
     11  O          0.2970  -32.4140   18.3690 O.2    96  LEU96      -0.2718
     12  CB         0.5530  -32.6480   21.4300 C.3    96  LEU96       0.0284
     13  CG         1.0040  -32.1600   22.7990 C.3    96  LEU96       0.0019
     14  CD1       -0.2280  -31.8860   23.6290 C.3    96  LEU96       0.0001
     15  CD2        1.8900  -33.2000   23.4720 C.3    96  LEU96       0.0001
     16  N          0.8520  -34.5570   18.7740 N.am   97  LYS97      -0.1980
     17  CA         0.1320  -35.0370   17.5970 C.3    97  LYS97       0.1596
     18  C         -1.2830  -35.3950   18.0640 C.2    97  LYS97       0.2287
     19  O         -1.4870  -35.7200   19.2290 O.2    97  LYS97      -0.2864
     20  CB         0.8580  -36.2410   17.0100 C.3    97  LYS97       0.0298
     21  CG         2.2800  -35.9160   16.5680 C.3    97  LYS97       0.0038
     22  CD         3.2830  -36.8790   17.1730 C.3    97  LYS97       0.0206
     23  CE         4.7070  -36.5830   16.7170 C.3    97  LYS97       0.1093
     24  NZ         5.6760  -37.5950   17.2400 N.3    97  LYS97      -0.1314
     25  N         -4.7810  -37.2260   19.0640 N.3    99  LYS99      -0.1231
     26  CA        -5.1120  -38.5540   19.5920 C.3    99  LYS99       0.1693
     27  C         -6.6050  -38.8550   19.6930 C.2    99  LYS99       0.2592
     28  O         -7.3750  -38.0700   20.2430 O.2    99  LYS99      -0.2718
     29  CB        -4.4810  -38.7650   20.9690 C.3    99  LYS99       0.0285
     30  CG        -2.9690  -38.8500   20.9390 C.3    99  LYS99       0.0035
     31  CD        -2.4990  -39.8030   19.8650 C.3    99  LYS99       0.0206
     32  CE        -0.9950  -39.8070   19.7450 C.3    99  LYS99       0.1093
     33  NZ        -0.6410  -40.4600   18.4630 N.3    99  LYS99      -0.1314
     34  N         -6.9960  -40.0080   19.1580 N.am  100  LYS100     -0.1966
     35  CA        -8.3810  -40.4680   19.1770 C.3   100  LYS100      0.1728
     36  C         -8.9040  -40.3180   20.6090 C.2   100  LYS100      0.2617
     37  O        -10.0000  -39.8060   20.8440 O.2   100  LYS100     -0.2715
     38  CB        -8.4190  -41.9370   18.7380 C.3   100  LYS100      0.0311
     39  CG        -9.4890  -42.3030   17.7300 C.3   100  LYS100      0.0038
     40  CD       -10.8080  -42.5640   18.4230 C.3   100  LYS100      0.0206
     41  CE       -11.8640  -43.0320   17.4320 C.3   100  LYS100      0.1093
     42  NZ       -13.2030  -43.2160   18.0730 N.3   100  LYS100     -0.1314
     43  N         -8.0930  -40.7520   21.5650 N.am  101  SER101     -0.1936
     44  CA        -8.4470  -40.6650   22.9740 C.3   101  SER101      0.2055
     45  C         -7.1830  -40.6760   23.8380 C.2   101  SER101      0.2642
     46  O         -6.1590  -41.2610   23.4660 O.2   101  SER101     -0.2714
     47  CB        -9.3740  -41.8190   23.3400 C.3   101  SER101      0.2130
     48  OG        -9.0030  -42.9810   22.6240 O.3   101  SER101     -0.2179
     49  N         -7.2550  -40.0080   24.9850 N.am  102  VAL102     -0.1977
     50  CA        -6.1170  -39.9030   25.9030 C.3   102  VAL102      0.1596
     51  C         -6.5330  -40.1850   27.3410 C.2   102  VAL102      0.2287
     52  O         -7.5140  -39.6300   27.8280 O.2   102  VAL102     -0.2864
     53  CB        -5.5080  -38.4800   25.8760 C.3   102  VAL102      0.0276
     54  CG1       -4.5280  -38.3120   27.0290 C.3   102  VAL102      0.0022
     55  CG2       -4.8310  -38.2270   24.5510 C.3   102  VAL102      0.0022
     56  N          1.2330  -43.9530   22.7680 N.3   173  VAL173     -0.1245
     57  CA         2.1130  -42.8640   23.1700 C.3   173  VAL173      0.1561
     58  C          1.9500  -42.5770   24.6510 C.2   173  VAL173      0.2260
     59  O          0.8280  -42.4780   25.1530 O.2   173  VAL173     -0.2867
     60  CB         1.7820  -41.5830   22.3910 C.3   173  VAL173      0.0252
     61  CG1        2.7790  -40.4950   22.7250 C.3   173  VAL173      0.0019
     62  CG2        1.7720  -41.8860   20.8900 C.3   173  VAL173      0.0019
     63  N          3.4010  -39.9460   27.6770 N.3   175  CYS175     -0.1235
     64  CA         4.1860  -38.7940   28.0970 C.3   175  CYS175      0.1677
     65  C          4.1930  -38.8850   29.6080 C.2   175  CYS175      0.2270
     66  O          3.1820  -39.2540   30.2160 O.2   175  CYS175     -0.2867
     67  CB         3.5200  -37.4840   27.6470 C.3   175  CYS175      0.0956
     68  SG         4.2750  -35.9250   28.2060 S.3   175  CYS175     -0.0801
     69  N          5.0160  -36.6860   33.0010 N.3   177  TYR177     -0.1241
     70  CA         5.2330  -35.3530   33.5130 C.3   177  TYR177      0.1605
     71  C          4.8390  -35.3200   34.9780 C.2   177  TYR177      0.2264
     72  O          3.6790  -35.0800   35.3110 O.2   177  TYR177     -0.2867
     73  CB         4.4090  -34.3280   32.7510 C.3   177  TYR177      0.0534
     74  CG         4.6440  -32.9220   33.2600 C.ar  177  TYR177     -0.0201
     75  CD1        3.6600  -31.9410   33.1470 C.ar  177  TYR177     -0.0009
     76  CD2        5.8540  -32.5760   33.8710 C.ar  177  TYR177     -0.0009
     77  CE1        3.8710  -30.6500   33.6340 C.ar  177  TYR177      0.0417
     78  CE2        6.0760  -31.2900   34.3600 C.ar  177  TYR177      0.0417
     79  CZ         5.0800  -30.3330   34.2400 C.ar  177  TYR177      0.1957
     80  OH         5.2890  -29.0650   34.7340 O.3   177  TYR177     -0.2866
     81  N          0.4810  -39.4680   30.7320 N.3   182  TYR182     -0.1227
     82  CA        -0.5270  -39.2280   29.7270 C.3   182  TYR182      0.1736
     83  C         -0.3790  -40.2990   28.6810 C.2   182  TYR182      0.2595
     84  O          0.6180  -40.3630   27.9740 O.2   182  TYR182     -0.2718
     85  CB        -0.3760  -37.8340   29.1200 C.3   182  TYR182      0.0548
     86  CG        -0.6130  -36.7270   30.1290 C.ar  182  TYR182     -0.0200
     87  CD1        0.4460  -36.1710   30.8510 C.ar  182  TYR182     -0.0009
     88  CD2       -1.9120  -36.3000   30.4300 C.ar  182  TYR182     -0.0009
     89  CE1        0.2180  -35.2210   31.8570 C.ar  182  TYR182      0.0417
     90  CE2       -2.1540  -35.3520   31.4330 C.ar  182  TYR182      0.0417
     91  CZ        -1.0870  -34.8200   32.1450 C.ar  182  TYR182      0.1957
     92  OH        -1.3330  -33.9160   33.1620 O.3   182  TYR182     -0.2866
     93  N         -1.3850  -41.1600   28.6200 N.am  183  VAL183     -0.1966
     94  CA        -1.4170  -42.2610   27.6850 C.3   183  VAL183      0.1727
     95  C         -2.4610  -41.9930   26.6220 C.2   183  VAL183      0.2616
     96  O         -3.6520  -41.8380   26.9210 O.2   183  VAL183     -0.2715
     97  CB        -1.7860  -43.5330   28.4010 C.3   183  VAL183      0.0290
     98  CG1       -1.6160  -44.7030   27.4750 C.3   183  VAL183      0.0023
     99  CG2       -0.9440  -43.6710   29.6420 C.3   183  VAL183      0.0023
    100  N         -2.0170  -41.9400   25.3760 N.am  184  GLY184     -0.1955
    101  CA        -2.9490  -41.6840   24.3000 C.3   184  GLY184      0.1869
    102  C         -2.7600  -42.6930   23.1950 C.2   184  GLY184      0.2309
    103  O         -1.7280  -43.3580   23.1270 O.2   184  GLY184     -0.2863
    104  N        -10.5050  -34.8700   30.8570 N.3   219  PRO219     -0.2116
    105  CA       -10.3650  -33.7040   29.9750 C.3   219  PRO219      0.1372
    106  C        -11.5700  -32.7480   30.0970 C.2   219  PRO219      0.2244
    107  O        -12.6330  -33.1380   30.6000 O.2   219  PRO219     -0.2868
    108  CB       -10.2490  -34.3350   28.5880 C.3   219  PRO219      0.0268
    109  CG       -11.0430  -35.6030   28.7240 C.3   219  PRO219      0.0207
    110  CD       -10.5940  -36.1130   30.0720 C.3   219  PRO219      0.0892
    111  N         -7.8350  -31.0880   29.5490 N.3   221  PHE221     -0.1241
    112  CA        -6.6790  -31.1010   30.4100 C.3   221  PHE221      0.1605
    113  C         -6.1220  -29.7030   30.5640 C.2   221  PHE221      0.2264
    114  O         -5.8400  -29.0180   29.5810 O.2   221  PHE221     -0.2867
    115  CB        -5.6210  -32.0510   29.8520 C.3   221  PHE221      0.0534
    116  CG        -6.0640  -33.4900   29.8110 C.ar  221  PHE221     -0.0203
    117  CD1       -6.5070  -34.1300   30.9710 C.ar  221  PHE221     -0.0042
    118  CD2       -6.0410  -34.2060   28.6180 C.ar  221  PHE221     -0.0042
    119  CE1       -6.9210  -35.4650   30.9500 C.ar  221  PHE221     -0.0003
    120  CE2       -6.4530  -35.5420   28.5820 C.ar  221  PHE221     -0.0003
    121  CZ        -6.8950  -36.1720   29.7540 C.ar  221  PHE221     -0.0000
    122  N         -3.2040  -27.9600   31.3390 N.3   223  TRP223     -0.1241
    123  CA        -1.7730  -28.1610   31.4380 C.3   223  TRP223      0.1605
    124  C         -1.0050  -26.8540   31.4540 C.2   223  TRP223      0.2264
    125  O         -0.7700  -26.2390   30.4020 O.2   223  TRP223     -0.2867
    126  CB        -1.3120  -29.0200   30.2790 C.3   223  TRP223      0.0550
    127  CG         0.0730  -29.4780   30.4150 C.ar  223  TRP223      0.0003
    128  CD1        0.5980  -30.2260   31.4300 C.ar  223  TRP223      0.0946
    129  CD2        1.1310  -29.2600   29.4830 C.ar  223  TRP223      0.0152
    130  NE1        1.9210  -30.4920   31.1840 N.ar  223  TRP223     -0.2442
    131  CE2        2.2750  -29.9100   29.9940 C.ar  223  TRP223      0.0810
    132  CE3        1.2230  -28.5780   28.2610 C.ar  223  TRP223      0.0012
    133  CZ2        3.4970  -29.9010   29.3260 C.ar  223  TRP223      0.0191
    134  CZ3        2.4370  -28.5690   27.5950 C.ar  223  TRP223      0.0001
    135  CH2        3.5610  -29.2280   28.1300 C.ar  223  TRP223      0.0015
    136  N         -6.1440  -28.4670   27.0140 N.3   228  LEU228     -0.1231
    137  CA        -5.9920  -29.3900   25.9060 C.3   228  LEU228      0.1693
    138  C         -7.3310  -30.0840   25.6830 C.2   228  LEU228      0.2592
    139  O         -7.8350  -30.8040   26.5480 O.2   228  LEU228     -0.2718
    140  CB        -4.8990  -30.4330   26.1890 C.3   228  LEU228      0.0284
    141  CG        -3.4450  -30.0130   26.4370 C.3   228  LEU228      0.0019
    142  CD1       -3.0440  -28.8500   25.5350 C.3   228  LEU228      0.0001
    143  CD2       -3.3020  -29.6180   27.8770 C.3   228  LEU228      0.0001
    144  N         -7.9220  -29.8340   24.5270 N.am  229  HIS229     -0.1962
    145  CA        -9.1840  -30.4510   24.2010 C.3   229  HIS229      0.1772
    146  C         -8.8390  -31.5100   23.1840 C.2   229  HIS229      0.2462
    147  O         -7.7650  -31.4820   22.5980 O.2   229  HIS229     -0.2730
    148  CB       -10.1610  -29.4170   23.6230 C.3   229  HIS229      0.0785
    149  CG       -10.6020  -28.3820   24.6160 C.ar  229  HIS229      0.0821
    150  ND1      -11.7300  -27.6110   24.4360 N.ar  229  HIS229     -0.2267
    151  CD2      -10.0690  -27.9960   25.8030 C.ar  229  HIS229      0.1154
    152  CE1      -11.8740  -26.7980   25.4690 C.ar  229  HIS229      0.1986
    153  NE2      -10.8800  -27.0120   26.3130 N.ar  229  HIS229     -0.2212
    154  N         -9.7450  -32.4590   22.9560 N.am  230  PRO230     -0.2727
    155  CA        -9.4880  -33.5270   21.9910 C.3   230  PRO230      0.1402
    156  C         -9.0820  -33.0760   20.5930 C.2   230  PRO230      0.2269
    157  O         -8.2360  -33.7110   19.9510 O.2   230  PRO230     -0.2865
    158  CB       -10.8030  -34.2980   21.9850 C.3   230  PRO230      0.0296
    159  CG       -11.8140  -33.2190   22.2730 C.3   230  PRO230      0.0237
    160  CD       -11.1490  -32.4810   23.3990 C.3   230  PRO230      0.0939
    161  N         -3.4880  -29.1110   16.9690 N.3   311  TYR311     -0.1241
    162  CA        -2.3920  -30.0630   17.1250 C.3   311  TYR311      0.1605
    163  C         -1.6400  -30.3420   15.8330 C.2   311  TYR311      0.2264
    164  O         -2.0390  -29.8900   14.7590 O.2   311  TYR311     -0.2867
    165  CB        -2.9340  -31.3590   17.6960 C.3   311  TYR311      0.0534
    166  CG        -3.6260  -31.1550   19.0110 C.ar  311  TYR311     -0.0201
    167  CD1       -2.9160  -30.7650   20.1360 C.ar  311  TYR311     -0.0009
    168  CD2       -4.9930  -31.3530   19.1370 C.ar  311  TYR311     -0.0009
    169  CE1       -3.5560  -30.5810   21.3650 C.ar  311  TYR311      0.0417
    170  CE2       -5.6420  -31.1670   20.3590 C.ar  311  TYR311      0.0417
    171  CZ        -4.9170  -30.7820   21.4700 C.ar  311  TYR311      0.1957
    172  OH        -5.5550  -30.5860   22.6770 O.3   311  TYR311     -0.2866
@<TRIPOS>BOND
     1   164   163    2
     2   163   162    1
     3    21    20    1
     4    21    22    1
     5    23    22    1
     6    23    24    1
     7   161   162    1
     8    20    17    1
     9   162   165    1
    10    41    42    1
    11    41    40    1
    12    17    18    1
    13    17    16    1
    14   165   166    1
    15    39    40    1
    16    39    38    1
    17    18    19    2
    18    11    10    2
    19    33    32    1
    20    38    35    1
    21    16    10   am
    22   166   168   ar
    23   166   167   ar
    24    25    26    1
    25    10     9    1
    26   168   170   ar
    27    34    35    1
    28    34    27   am
    29    35    36    1
    30    26    27    1
    31    26    29    1
    32    27    28    2
    33    32    31    1
    34    31    30    1
    35   157   156    2
    36     8     9    1
    37   167   169   ar
    38     9    12    1
    39   170   171   ar
    40   156   155    1
    41    36    37    2
    42    36    43   am
    43    62    60    1
    44    30    29    1
    45   169   171   ar
    46    12    13    1
    47   171   172    1
    48    43    44    1
    49   158   155    1
    50   158   159    1
    51   155   154    1
    52   159   160    1
    53    60    61    1
    54    60    57    1
    55   147   146    2
    56    48    47    1
    57    56    57    1
    58    13    15    1
    59    13    14    1
    60   154   146   am
    61   154   160    1
    62    44    47    1
    63    44    45    1
    64   103   102    2
    65    57    58    1
    66   146   145    1
    67   102   101    1
    68    46    45    2
    69   148   145    1
    70   148   149    1
    71    45    49   am
    72   145   144    1
    73   101   100    1
    74   150   149   ar
    75   150   152   ar
    76   144   138   am
    77    55    53    1
    78   149   151   ar
    79    58    59    2
    80    49    50    1
    81     3     2    1
    82     3     4    2
    83   100    95   am
    84     2     5    1
    85     2     1    1
    86   152   153   ar
    87     5     6    1
    88   142   141    1
    89   138   137    1
    90   138   139    2
    91   151   153   ar
    92    53    50    1
    93    53    54    1
    94    50    51    1
    95   137   140    1
    96   137   136    1
    97   140   141    1
    98   141   143    1
    99     6     7    1
   100    95    96    2
   101    95    94    1
   102     1     7    1
   103    51    52    2
   104    98    97    1
   105   134   135   ar
   106   134   132   ar
   107    67    64    1
   108    67    68    1
   109    63    64    1
   110    94    97    1
   111    94    93    1
   112    84    83    2
   113    64    65    1
   114   135   133   ar
   115   132   129   ar
   116    97    99    1
   117   120   118   ar
   118   120   121   ar
   119   108   109    1
   120   108   105    1
   121   118   116   ar
   122    93    83   am
   123    83    82    1
   124   109   110    1
   125    85    82    1
   126    85    86    1
   127   133   131   ar
   128   129   131   ar
   129   129   127   ar
   130   111   112    1
   131   114   113    2
   132    65    66    2
   133    82    81    1
   134   121   119   ar
   135   116   115    1
   136   116   117   ar
   137   115   112    1
   138   105   106    1
   139   105   104    1
   140   131   130   ar
   141   110   104    1
   142   106   107    2
   143    86    88   ar
   144    86    87   ar
   145   126   127    1
   146   126   123    1
   147   125   124    2
   148   112   113    1
   149   127   128   ar
   150    88    90   ar
   151    87    89   ar
   152   119   117   ar
   153   130   128   ar
   154   122   123    1
   155    90    91   ar
   156   123   124    1
   157    89    91   ar
   158    91    92    1
   159    73    74    1
   160    73    70    1
   161    69    70    1
   162    75    74   ar
   163    75    77   ar
   164    74    76   ar
   165    70    71    1
   166    77    79   ar
   167    76    78   ar
   168    79    78   ar
   169    79    80    1
   170    71    72    2
