@<TRIPOS>MOLECULE
tmp/1jldA00.pdb
 121 113 0 0 0
SMALL
GASTEIGER

@<TRIPOS>ATOM
      1  N         54.1210   34.2790   11.1210 N.3     8  ARG8       -0.1245
      2  CA        54.0600   33.7910    9.7690 C.3     8  ARG8        0.1563
      3  C         54.3960   34.8840    8.7940 C.2     8  ARG8        0.2260
      4  O         53.8610   36.0030    8.9000 O.2     8  ARG8       -0.2867
      5  CB        52.6580   33.4660    9.4170 C.3     8  ARG8        0.0307
      6  CG        52.0290   32.5750   10.4400 C.3     8  ARG8        0.0489
      7  CD        51.0560   31.6220    9.7740 C.3     8  ARG8        0.2205
      8  NE        50.5070   30.6860   10.7210 N.pl3   8  ARG8       -0.0865
      9  CZ        49.2260   30.6550   10.9400 C.cat   8  ARG8        0.5346
     10  NH1       48.4010   31.4680   10.2690 N.pl3   8  ARG8        0.1354
     11  NH2       48.7800   29.8030   11.8370 N.pl3   8  ARG8        0.1354
     12  N         50.7160   33.6800    2.4440 N.3    23  LEU23      -0.1245
     13  CA        51.8310   33.2050    3.1960 C.3    23  LEU23       0.1561
     14  C         52.9410   32.9180    2.2060 C.2    23  LEU23       0.2260
     15  O         52.7030   32.1820    1.2640 O.2    23  LEU23      -0.2867
     16  CB        51.3570   31.8890    3.7660 C.3    23  LEU23       0.0270
     17  CG        52.3740   31.0920    4.5450 C.3    23  LEU23       0.0019
     18  CD1       53.0430   31.9500    5.6020 C.3    23  LEU23       0.0001
     19  CD2       51.6240   29.9410    5.1980 C.3    23  LEU23       0.0001
     20  N         55.6960   30.8850    1.2140 N.3    25  ASP25      -0.1239
     21  CA        56.0370   29.4960    1.5630 C.3    25  ASP25       0.1674
     22  C         57.2110   28.8260    0.8510 C.2    25  ASP25       0.2266
     23  O         57.0060   28.2340   -0.1860 O.2    25  ASP25      -0.2867
     24  CB        54.7710   28.6160    1.3330 C.3    25  ASP25       0.1410
     25  CG        54.6800   27.3220    2.1100 C.2    25  ASP25       0.3668
     26  OD1       55.8140   26.9200    2.6210 O.co2  25  ASP25      -0.2456
     27  OD2       53.6890   26.6270    2.1470 O.co2  25  ASP25      -0.2456
     28  N         58.2140   26.1450    1.3550 N.3    27  GLY27      -0.1210
     29  CA        57.9120   24.7220    1.4570 C.3    27  GLY27       0.1956
     30  C         56.8040   24.2540    0.5260 C.2    27  GLY27       0.2612
     31  O         56.2760   23.1390    0.6650 O.2    27  GLY27      -0.2717
     32  N         56.4900   25.1160   -0.4440 N.am   28  ALA28      -0.1965
     33  CA        55.4870   24.8500   -1.4410 C.3    28  ALA28       0.1728
     34  C         56.1090   25.0200   -2.8310 C.2    28  ALA28       0.2616
     35  O         56.6950   26.0700   -3.1980 O.2    28  ALA28      -0.2715
     36  CB        54.3450   25.8060   -1.2100 C.3    28  ALA28       0.0334
     37  N         56.0010   23.9600   -3.6130 N.am   29  ASP29      -0.1957
     38  CA        56.5260   24.0020   -4.9310 C.3    29  ASP29       0.1840
     39  C         55.6410   24.8260   -5.7960 C.2    29  ASP29       0.2622
     40  O         56.1020   25.2910   -6.8380 O.2    29  ASP29      -0.2715
     41  CB        56.4610   22.6500   -5.6040 C.3    29  ASP29       0.1450
     42  CG        57.0560   21.5310   -4.8410 C.2    29  ASP29       0.3671
     43  OD1       57.9080   21.6510   -4.0000 O.co2  29  ASP29      -0.2456
     44  OD2       56.6150   20.3820   -5.2990 O.co2  29  ASP29      -0.2456
     45  N         54.3440   24.8700   -5.4000 N.am   30  ASP30      -0.1971
     46  CA        53.2910   25.5780   -6.1320 C.3    30  ASP30       0.1709
     47  C         52.4900   26.6180   -5.2780 C.2    30  ASP30       0.2293
     48  O         52.5130   26.5990   -4.0370 O.2    30  ASP30      -0.2864
     49  CB        52.4030   24.5630   -6.8920 C.3    30  ASP30       0.1436
     50  CG        53.1900   23.6060   -7.7900 C.2    30  ASP30       0.3671
     51  OD1       54.0900   23.9510   -8.5870 O.co2  30  ASP30      -0.2456
     52  OD2       52.8140   22.3480   -7.6180 O.co2  30  ASP30      -0.2456
     53  N         48.8200   28.3810   -4.3890 N.3    32  ILE32      -0.1245
     54  CA        47.4050   28.1110   -4.3620 C.3    32  ILE32       0.1561
     55  C         46.6550   29.1630   -3.5390 C.2    32  ILE32       0.2260
     56  O         47.0170   29.5090   -2.4240 O.2    32  ILE32      -0.2867
     57  CB        47.0660   26.7200   -3.8660 C.3    32  ILE32       0.0252
     58  CG1       45.5660   26.6740   -3.6400 C.3    32  ILE32       0.0019
     59  CG2       47.7560   26.5240   -2.5390 C.3    32  ILE32       0.0019
     60  CD1       45.0560   25.2640   -3.5360 C.3    32  ILE32       0.0001
     61  N         46.3830   17.9620   -6.4090 N.3    47  VAL47      -0.1231
     62  CA        47.4470   18.4010   -5.5670 C.3    47  VAL47       0.1692
     63  C         47.4950   17.7450   -4.2180 C.2    47  VAL47       0.2593
     64  O         46.4440   17.4220   -3.6670 O.2    47  VAL47      -0.2718
     65  CB        47.1500   19.8840   -5.4890 C.3    47  VAL47       0.0266
     66  CG1       46.9770   20.4930   -4.0970 C.3    47  VAL47       0.0020
     67  CG2       47.9970   20.6730   -6.4730 C.3    47  VAL47       0.0020
     68  N         48.7340   17.6190   -3.6990 N.am   48  GLY48      -0.1942
     69  CA        49.0720   17.0140   -2.4020 C.3    48  GLY48       0.2014
     70  C         49.6760   17.9360   -1.3100 C.2    48  GLY48       0.2639
     71  O         50.4220   18.9060   -1.5590 O.2    48  GLY48      -0.2714
     72  N         49.3030   17.5730   -0.0650 N.am   49  GLY49      -0.1939
     73  CA        49.7210   18.2110    1.1400 C.3    49  GLY49       0.2014
     74  C         50.0000   17.1200    2.1430 C.2    49  GLY49       0.2638
     75  O         49.9350   15.9420    1.7930 O.2    49  GLY49      -0.2714
     76  N         50.3330   17.5120    3.3780 N.am   50  ILE50      -0.1977
     77  CA        50.5540   16.5740    4.4810 C.3    50  ILE50       0.1596
     78  C         49.2890   15.7280    4.5840 C.2    50  ILE50       0.2287
     79  O         49.3380   14.4910    4.5800 O.2    50  ILE50      -0.2864
     80  CB        50.7300   17.3230    5.8170 C.3    50  ILE50       0.0276
     81  CG1       51.8590   18.3250    5.7510 C.3    50  ILE50       0.0022
     82  CG2       50.9610   16.3900    6.9900 C.3    50  ILE50       0.0022
     83  CD1       53.2580   17.6970    5.7660 C.3    50  ILE50       0.0001
     84  N         47.1120   28.3600   -8.7000 N.3    76  MET76      -0.1245
     85  CA        46.1230   27.3200   -8.7370 C.3    76  MET76       0.1570
     86  C         44.9860   27.7960   -7.8540 C.2    76  MET76       0.2261
     87  O         45.1740   28.6250   -6.9710 O.2    76  MET76      -0.2867
     88  CB        46.6290   25.9690   -8.2630 C.3    76  MET76       0.0387
     89  CG        47.8590   25.5350   -8.9820 C.3    76  MET76       0.0595
     90  SD        48.4160   24.0010   -8.2340 S.3    76  MET76      -0.1393
     91  CE        47.7190   22.8460   -9.4290 C.3    76  MET76       0.0692
     92  N         41.7270   26.0600    0.2710 N.3    80  THR80      -0.1204
     93  CA        42.9150   26.1780    1.0920 C.3    80  THR80       0.1982
     94  C         42.6260   27.1450    2.2160 C.2    80  THR80       0.2497
     95  O         42.1020   28.2190    1.9690 O.2    80  THR80      -0.2729
     96  CB        44.1560   26.5650    0.2660 C.3    80  THR80       0.1783
     97  OG1       45.2620   26.5050    1.1100 O.3    80  THR80      -0.2211
     98  CG2       44.0530   27.9560   -0.3270 C.3    80  THR80       0.0376
     99  N         42.8940   26.7300    3.4620 N.am   81  PRO81      -0.2492
    100  CA        42.6320   27.5370    4.6270 C.3    81  PRO81       0.1619
    101  C         43.4030   28.8510    4.6270 C.2    81  PRO81       0.2605
    102  O         42.8520   29.8880    5.0040 O.2    81  PRO81      -0.2715
    103  CB        42.9850   26.6920    5.8410 C.3    81  PRO81       0.0570
    104  CG        43.6620   25.4300    5.3340 C.2    81  PRO81      -0.0077
    105  CD        43.5940   25.4590    3.8270 C.2    81  PRO81       0.0634
    106  N         44.6810   28.7990    4.2330 N.am   82  ILE82      -0.1978
    107  CA        45.5170   29.9820    4.1070 C.3    82  ILE82       0.1596
    108  C         45.9580   30.0150    2.6680 C.2    82  ILE82       0.2287
    109  O         46.0550   28.9460    2.0900 O.2    82  ILE82      -0.2864
    110  CB        46.6800   29.9450    5.1050 C.3    82  ILE82       0.0276
    111  CG1       46.1100   30.0050    6.5190 C.3    82  ILE82       0.0022
    112  CG2       47.7140   31.0650    4.9160 C.3    82  ILE82       0.0022
    113  CD1       45.6380   28.6340    6.9640 C.3    82  ILE82       0.0001
    114  N         48.6220   30.4750   -0.3760 N.3    84  ILE84      -0.1245
    115  CA        50.0470   30.3180   -0.3350 C.3    84  ILE84       0.1561
    116  C         50.8230   30.6570   -1.5920 C.2    84  ILE84       0.2260
    117  O         50.5010   30.2350   -2.6950 O.2    84  ILE84      -0.2867
    118  CB        50.4520   28.9520    0.2640 C.3    84  ILE84       0.0252
    119  CG1       50.2330   27.8680   -0.7530 C.3    84  ILE84       0.0019
    120  CG2       49.6390   28.5760    1.5100 C.3    84  ILE84       0.0019
    121  CD1       51.5390   27.1790   -1.1230 C.3    84  ILE84       0.0001
@<TRIPOS>BOND
     1    91    90    1
     2    89    88    1
     3    89    90    1
     4    85    84    1
     5    85    88    1
     6    85    86    1
     7    51    50   ar
     8    86    87    2
     9    50    52   ar
    10    50    49    1
    11    49    46    1
    12    40    39    2
    13    67    65    1
    14    61    62    1
    15    46    45    1
    16    46    47    1
    17    39    45   am
    18    39    38    1
    19    41    38    1
    20    41    42    1
    21    62    65    1
    22    62    63    1
    23    65    66    1
    24    44    42   ar
    25    47    48    2
    26    38    37    1
    27    42    43   ar
    28    53    54    1
    29    54    57    1
    30    54    55    1
    31    63    68   am
    32    63    64    2
    33    57    58    1
    34    57    59    1
    35    68    69    1
    36    58    60    1
    37    37    34   am
    38    55    56    2
    39    35    34    2
    40    34    33    1
    41   117   116    2
    42    69    70    1
    43   116   115    1
    44    71    70    2
    45    33    36    1
    46    33    32    1
    47    70    72   am
    48   121   119    1
    49   119   118    1
    50    32    30   am
    51   114   115    1
    52   115   118    1
    53    98    96    1
    54    23    22    2
    55    72    73    1
    56   118   120    1
    57    96    93    1
    58    96    97    1
    59    92    93    1
    60    30    31    2
    61    30    29    1
    62    22    21    1
    63    93    94    1
    64    73    74    1
    65    20    21    1
    66    15    14    2
    67    24    21    1
    68    24    25    1
    69    28    29    1
    70    75    74    2
    71    95    94    2
    72   109   108    2
    73    25    27   ar
    74    25    26   ar
    75    74    76   am
    76    14    13    1
    77    94    99   am
    78    12    13    1
    79   108   107    1
    80    13    16    1
    81    76    77    1
    82    99   105    1
    83    99   100    1
    84    16    17    1
    85   105   104    2
    86   107   106    1
    87   107   110    1
    88   106   101   am
    89    77    78    1
    90    77    80    1
    91    17    19    1
    92    17    18    1
    93    79    78    2
    94   100   101    1
    95   100   103    1
    96   101   102    2
    97   112   110    1
    98   110   111    1
    99   104   103    1
   100    81    83    1
   101    81    80    1
   102    80    82    1
   103   111   113    1
   104     3     4    2
   105     3     2    1
   106     5     2    1
   107     5     6    1
   108     2     1    1
   109     7     6    1
   110     7     8    1
   111    10     9    1
   112     8     9    2
   113     9    11    1
