@<TRIPOS>MOLECULE
tmp/1jllD01.pdb
 85 81 0 0 0
SMALL
GASTEIGER

@<TRIPOS>ATOM
      1  N          0.4650   16.8940   90.9600 N.3   318  ILE318     -0.1245
      2  CA         1.4200   15.9660   90.4150 C.3   318  ILE318      0.1561
      3  C          0.7180   14.6490   90.2180 C.2   318  ILE318      0.2260
      4  O         -0.3820   14.4640   90.7180 O.2   318  ILE318     -0.2867
      5  CB         2.6210   15.7800   91.3620 C.3   318  ILE318      0.0252
      6  CG1        3.2800   17.1340   91.6140 C.3   318  ILE318      0.0019
      7  CG2        3.6180   14.7940   90.7730 C.3   318  ILE318      0.0019
      8  CD1        3.4220   18.0270   90.3730 C.3   318  ILE318      0.0001
      9  N          2.6630   10.8860   89.4490 N.3   320  GLY320     -0.1210
     10  CA         3.7060   10.0410   88.9180 C.3   320  GLY320      0.1956
     11  C          4.9520   10.8700   88.7130 C.2   320  GLY320      0.2612
     12  O          5.2240   11.7870   89.4820 O.2   320  GLY320     -0.2717
     13  N          5.7030   10.5820   87.6620 N.am  321  GLY321     -0.1942
     14  CA         6.9270   11.3140   87.4230 C.3   321  GLY321      0.2014
     15  C          7.9810   10.4770   88.0940 C.2   321  GLY321      0.2639
     16  O          7.6580    9.5500   88.8020 O.2   321  GLY321     -0.2714
     17  N          9.2440   10.7980   87.8810 N.am  322  ILE322     -0.1963
     18  CA        10.3320   10.0330   88.4760 C.3   322  ILE322      0.1727
     19  C         10.4920   10.2390   90.0020 C.2   322  ILE322      0.2616
     20  O         11.1380    9.4320   90.6840 O.2   322  ILE322     -0.2715
     21  CB        11.6820   10.4000   87.7690 C.3   322  ILE322      0.0290
     22  CG1       12.0590   11.8590   88.0730 C.3   322  ILE322      0.0022
     23  CG2       11.5390   10.2320   86.2600 C.3   322  ILE322      0.0023
     24  CD1       13.4420   12.2750   87.5680 C.3   322  ILE322      0.0001
     25  N          9.9000   11.3070   90.5350 N.am  323  VAL323     -0.1963
     26  CA        10.0490   11.6230   91.9520 C.3   323  VAL323      0.1727
     27  C          8.9230   11.1300   92.8310 C.2   323  VAL323      0.2616
     28  O          7.7460   11.3000   92.4860 O.2   323  VAL323     -0.2715
     29  CB        10.1540   13.1640   92.1870 C.3   323  VAL323      0.0290
     30  CG1       11.1440   13.4730   93.3210 C.3   323  VAL323      0.0023
     31  CG2       10.5440   13.8690   90.8880 C.3   323  VAL323      0.0023
     32  N          9.3040   10.5760   93.9910 N.am  324  ARG324     -0.1963
     33  CA         8.3630   10.0670   94.9900 C.3   324  ARG324      0.1729
     34  C          7.4730   11.1430   95.5940 C.2   324  ARG324      0.2616
     35  O          7.9470   12.1510   96.0950 O.2   324  ARG324     -0.2715
     36  CB         9.1110    9.3440   96.1040 C.3   324  ARG324      0.0348
     37  CG         9.7250    8.0210   95.6660 C.3   324  ARG324      0.0492
     38  CD        10.2960    7.2600   96.8360 C.3   324  ARG324      0.2205
     39  NE        11.3800    7.9850   97.5180 N.pl3 324  ARG324     -0.0865
     40  CZ        11.2800    8.5690   98.7170 C.cat 324  ARG324      0.5346
     41  NH1       10.1330    8.5320   99.3960 N.pl3 324  ARG324      0.1354
     42  NH2       12.3420    9.1630   99.2530 N.pl3 324  ARG324      0.1354
     43  N          6.1720   10.8980   95.5620 N.am  325  CYS325     -0.1968
     44  CA         5.1900   11.8390   96.0640 C.3   325  CYS325      0.1712
     45  C          5.4800   12.5680   97.3620 C.2   325  CYS325      0.2296
     46  O          4.7780   13.5300   97.6880 O.2   325  CYS325     -0.2864
     47  CB         3.8280   11.1680   96.1530 C.3   325  CYS325      0.0983
     48  SG         2.7360   11.7300   94.8170 S.3   325  CYS325     -0.0798
     49  N          8.5120   15.2140   96.8050 N.3   328  ILE328     -0.1245
     50  CA         7.8580   16.3200   96.1300 C.3   328  ILE328      0.1561
     51  C          7.2150   17.2440   97.1680 C.2   328  ILE328      0.2260
     52  O          7.0930   18.4480   96.9640 O.2   328  ILE328     -0.2867
     53  CB         6.7730   15.7970   95.1390 C.3   328  ILE328      0.0252
     54  CG1        7.4180   15.4890   93.7890 C.3   328  ILE328      0.0019
     55  CG2        5.6510   16.8140   94.9620 C.3   328  ILE328      0.0019
     56  CD1        6.4270   15.1840   92.7190 C.3   328  ILE328      0.0001
     57  N         -1.3110   15.2130   95.2890 N.3   349  LEU349     -0.1231
     58  CA        -0.2600   14.2650   94.9870 C.3   349  LEU349      0.1693
     59  C         -0.8990   12.9500   94.5840 C.2   349  LEU349      0.2592
     60  O         -2.0680   12.7170   94.8620 O.2   349  LEU349     -0.2718
     61  CB         0.6600   14.0660   96.1940 C.3   349  LEU349      0.0284
     62  CG         1.5000   15.2970   96.5510 C.3   349  LEU349      0.0019
     63  CD1        2.3610   14.9580   97.7320 C.3   349  LEU349      0.0001
     64  CD2        2.3550   15.7320   95.3670 C.3   349  LEU349      0.0001
     65  N         -0.1300   12.1080   93.9010 N.am  350  GLU350     -0.1966
     66  CA        -0.6090   10.8250   93.4250 C.3   350  GLU350      0.1733
     67  C          0.5690    9.9990   93.0410 C.2   350  GLU350      0.2617
     68  O          1.4010   10.4500   92.2730 O.2   350  GLU350     -0.2715
     69  CB        -1.4900   11.0010   92.2000 C.3   350  GLU350      0.0429
     70  CG        -2.9540   10.8720   92.4800 C.3   350  GLU350      0.1163
     71  CD        -3.2900    9.5360   93.1110 C.2   350  GLU350      0.3649
     72  OE1       -2.3840    8.6680   93.2560 O.co2 350  GLU350     -0.2457
     73  OE2       -4.4730    9.3590   93.4680 O.co2 350  GLU350     -0.2457
     74  N          0.6320    8.7850   93.5630 N.am  351  GLY351     -0.1940
     75  CA         1.7450    7.9070   93.2580 C.3   351  GLY351      0.2014
     76  C          2.3470    7.4110   94.5490 C.2   351  GLY351      0.2638
     77  O          1.6280    7.2820   95.5410 O.2   351  GLY351     -0.2714
     78  N          3.6520    7.1390   94.5420 N.am  352  ASN352     -0.1972
     79  CA         4.3610    6.6600   95.7320 C.3   352  ASN352      0.1688
     80  C          4.3820    7.6680   96.8740 C.2   352  ASN352      0.2292
     81  O          4.8870    8.7840   96.7110 O.2   352  ASN352     -0.2864
     82  CB         5.8030    6.3240   95.3880 C.3   352  ASN352      0.1181
     83  CG         5.9570    4.9390   94.8140 C.2   352  ASN352      0.2629
     84  OD1        5.0830    4.4370   94.0770 O.2   352  ASN352     -0.2716
     85  ND2        7.0850    4.3010   95.1330 N.am  352  ASN352     -0.0877
@<TRIPOS>BOND
     1    23    21    1
     2    14    13    1
     3    14    15    1
     4    24    22    1
     5    13    11   am
     6    21    22    1
     7    21    18    1
     8    17    15   am
     9    17    18    1
    10    15    16    2
    11    18    19    1
    12    11    10    1
    13    11    12    2
    14    10     9    1
    15    19    25   am
    16    19    20    2
    17     3     2    1
    18     3     4    2
    19     8     6    1
    20     2     1    1
    21     2     5    1
    22    25    26    1
    23     7     5    1
    24    31    29    1
    25     5     6    1
    26    26    29    1
    27    26    27    1
    28    29    30    1
    29    69    70    1
    30    69    66    1
    31    68    67    2
    32    70    71    1
    33    28    27    2
    34    56    54    1
    35    27    32   am
    36    67    66    1
    37    67    74   am
    38    71    72   ar
    39    71    73   ar
    40    75    74    1
    41    75    76    1
    42    66    65    1
    43    54    53    1
    44    65    59   am
    45    32    33    1
    46    84    83    2
    47    78    76   am
    48    78    79    1
    49    76    77    2
    50    59    60    2
    51    59    58    1
    52    83    85   am
    53    83    82    1
    54    48    47    1
    55    55    53    1
    56    58    57    1
    57    58    61    1
    58    33    34    1
    59    33    36    1
    60    53    50    1
    61    64    62    1
    62    82    79    1
    63    43    34   am
    64    43    44    1
    65    34    35    2
    66    37    36    1
    67    37    38    1
    68    79    80    1
    69    44    47    1
    70    44    45    1
    71    50    49    1
    72    50    51    1
    73    61    62    1
    74    62    63    1
    75    81    80    2
    76    38    39    1
    77    52    51    2
    78    45    46    2
    79    39    40    2
    80    40    42    1
    81    40    41    1
