@<TRIPOS>MOLECULE
tmp/1jllC00.pdb
 176 169 0 0 0
SMALL
GASTEIGER

@<TRIPOS>ATOM
      1  N         16.3690    0.6630   71.0880 N.3    13  GLN13      -0.1231
      2  CA        17.3260    1.5130   70.3840 C.3    13  GLN13       0.1698
      3  C         17.6860    2.6830   71.3420 C.2    13  GLN13       0.2592
      4  O         16.8050    3.3930   71.8540 O.2    13  GLN13      -0.2718
      5  CB        16.6910    2.0030   69.0630 C.3    13  GLN13       0.0381
      6  CG        16.3660    0.8660   68.0910 C.3    13  GLN13       0.0905
      7  CD        15.7780    1.3300   66.7850 C.2    13  GLN13       0.2608
      8  OE1       14.5530    1.2550   66.5680 O.2    13  GLN13      -0.2717
      9  NE2       16.6410    1.8180   65.8970 N.am   13  GLN13      -0.0878
     10  N         18.9820    2.8640   71.5870 N.am   14  GLY14      -0.1957
     11  CA        19.4190    3.8910   72.5200 C.3    14  GLY14       0.1869
     12  C         19.2180    3.3450   73.9170 C.2    14  GLY14       0.2309
     13  O         18.9060    4.0440   74.8730 O.2    14  GLY14      -0.2863
     14  N         21.5870    1.6820   75.8640 N.3    16  THR16      -0.1203
     15  CA        22.6230    1.9210   76.8650 C.3    16  THR16       0.1994
     16  C         22.6700    3.3890   77.3050 C.2    16  THR16       0.2618
     17  O         23.6670    3.8540   77.8680 O.2    16  THR16      -0.2717
     18  CB        24.0720    1.5210   76.3640 C.3    16  THR16       0.1784
     19  OG1       24.4370    2.2840   75.1990 O.3    16  THR16      -0.2211
     20  CG2       24.1350    0.0490   76.0390 C.3    16  THR16       0.0376
     21  N         21.6030    4.1210   77.0120 N.am   17  GLY17      -0.1942
     22  CA        21.5320    5.5240   77.3690 C.3    17  GLY17       0.2014
     23  C         20.7440    5.6580   78.6450 C.2    17  GLY17       0.2640
     24  O         20.1320    4.6820   79.1090 O.2    17  GLY17      -0.2714
     25  N         20.7290    6.8590   79.2090 N.am   18  SER18      -0.1935
     26  CA        20.0450    7.0610   80.4770 C.3    18  SER18       0.2055
     27  C         18.6120    6.6270   80.4950 C.2    18  SER18       0.2643
     28  O         18.2320    5.7980   81.3110 O.2    18  SER18      -0.2714
     29  CB        20.1270    8.5310   80.9140 C.3    18  SER18       0.2130
     30  OG        21.4610    9.0320   80.8360 O.3    18  SER18      -0.2179
     31  N         17.8180    7.1970   79.5970 N.am   19  GLN19      -0.1963
     32  CA        16.4020    6.8950   79.5740 C.3    19  GLN19       0.1733
     33  C         16.0820    5.4950   79.1120 C.2    19  GLN19       0.2616
     34  O         15.1370    4.8860   79.5860 O.2    19  GLN19      -0.2715
     35  CB        15.6550    7.9300   78.7270 C.3    19  GLN19       0.0408
     36  CG        15.6500    9.2810   79.3900 C.3    19  GLN19       0.0908
     37  CD        15.0780    9.2450   80.8250 C.2    19  GLN19       0.2608
     38  OE1       13.8670    9.1440   81.0050 O.2    19  GLN19      -0.2717
     39  NE2       15.9540    9.3130   81.8400 N.am   19  GLN19      -0.0878
     40  N         16.8810    4.9890   78.1830 N.am   20  GLY20      -0.1955
     41  CA        16.6350    3.6590   77.6830 C.3    20  GLY20       0.1869
     42  C         16.9670    2.6590   78.7630 C.2    20  GLY20       0.2309
     43  O         16.2510    1.6710   78.9370 O.2    20  GLY20      -0.2863
     44  N         19.9740   -2.0080   70.9110 N.3    38  VAL38      -0.1231
     45  CA        20.8990   -1.5290   69.8970 C.3    38  VAL38       0.1692
     46  C         21.5350   -0.1790   70.1950 C.2    38  VAL38       0.2593
     47  O         20.8340    0.8250   70.4220 O.2    38  VAL38      -0.2718
     48  CB        20.2100   -1.3560   68.4990 C.3    38  VAL38       0.0266
     49  CG1       21.2670   -1.1240   67.4500 C.3    38  VAL38       0.0020
     50  CG2       19.3310   -2.5150   68.1800 C.3    38  VAL38       0.0020
     51  N         22.8590   -0.1620   70.1280 N.am   39  THR39      -0.1940
     52  CA        23.6270    1.0520   70.3080 C.3    39  THR39       0.2013
     53  C         24.8870    0.9830   69.4350 C.2    39  THR39       0.2484
     54  O         25.8390    0.2880   69.7490 O.2    39  THR39      -0.2729
     55  CB        23.9930    1.2880   71.7760 C.3    39  THR39       0.1807
     56  OG1       22.8490    1.8470   72.4390 O.3    39  THR39      -0.2208
     57  CG2       25.1820    2.2360   71.8780 C.3    39  THR39       0.0379
     58  N         24.9080    1.7430   68.3240 N.am   40  PRO40      -0.2726
     59  CA        26.0820    1.7020   67.4520 C.3    40  PRO40       0.1402
     60  C         27.3410    1.8990   68.2220 C.2    40  PRO40       0.2269
     61  O         27.4530    2.8500   68.9510 O.2    40  PRO40      -0.2865
     62  CB        25.8110    2.8130   66.4560 C.3    40  PRO40       0.0296
     63  CG        24.2970    2.8710   66.4240 C.3    40  PRO40       0.0237
     64  CD        23.9370    2.7550   67.8470 C.3    40  PRO40       0.0939
     65  N         28.5600   -0.2350   70.5930 N.3    42  LYS42      -0.1245
     66  CA        28.5520   -1.0790   71.7750 C.3    42  LYS42       0.1561
     67  C         27.9640   -2.4590   71.4740 C.2    42  LYS42       0.2260
     68  O         27.4250   -3.1410   72.3670 O.2    42  LYS42      -0.2867
     69  CB        27.7370   -0.3870   72.8820 C.3    42  LYS42       0.0271
     70  CG        28.4440    0.8020   73.4350 C.3    42  LYS42       0.0035
     71  CD        27.5780    1.6200   74.3530 C.3    42  LYS42       0.0206
     72  CE        28.3420    2.9010   74.7230 C.3    42  LYS42       0.1093
     73  NZ        27.5120    3.9050   75.4070 N.3    42  LYS42      -0.1314
     74  N         14.6340    5.4420   72.1530 N.3    71  TYR71      -0.1227
     75  CA        15.0660    6.4440   73.1400 C.3    71  TYR71       0.1736
     76  C         16.3440    7.1170   72.5860 C.2    71  TYR71       0.2595
     77  O         17.3190    7.3590   73.3000 O.2    71  TYR71      -0.2718
     78  CB        15.3880    5.7610   74.4910 C.3    71  TYR71       0.0548
     79  CG        14.1770    5.2300   75.2580 C.ar   71  TYR71      -0.0200
     80  CD1       13.3600    6.0940   75.9950 C.ar   71  TYR71      -0.0009
     81  CD2       13.8490    3.8640   75.2490 C.ar   71  TYR71      -0.0009
     82  CE1       12.2510    5.6250   76.7060 C.ar   71  TYR71       0.0417
     83  CE2       12.7430    3.3850   75.9530 C.ar   71  TYR71       0.0417
     84  CZ        11.9370    4.2810   76.6900 C.ar   71  TYR71       0.1957
     85  OH        10.8220    3.8790   77.4110 O.3    71  TYR71      -0.2866
     86  N         16.3430    7.3930   71.2940 N.am   72  VAL72      -0.1966
     87  CA        17.4930    8.0220   70.6500 C.3    72  VAL72       0.1712
     88  C         17.1660    9.5000   70.5980 C.2    72  VAL72       0.2458
     89  O         16.0280    9.8820   70.3150 O.2    72  VAL72      -0.2730
     90  CB        17.6760    7.4430   69.2200 C.3    72  VAL72       0.0289
     91  CG1       18.6720    8.2590   68.4190 C.3    72  VAL72       0.0023
     92  CG2       18.0980    5.9600   69.3220 C.3    72  VAL72       0.0023
     93  N         18.1450   10.3630   70.8640 N.am   73  PRO73      -0.2716
     94  CA        17.8440   11.7980   70.8270 C.3    73  PRO73       0.1536
     95  C         17.3140   12.2770   69.4840 C.2    73  PRO73       0.2598
     96  O         17.7260   11.7810   68.4110 O.2    73  PRO73      -0.2715
     97  CB        19.1810   12.4390   71.2010 C.3    73  PRO73       0.0310
     98  CG        19.8000   11.4010   72.1090 C.3    73  PRO73       0.0237
     99  CD        19.5200   10.1320   71.3180 C.3    73  PRO73       0.0939
    100  N         16.4240   13.2620   69.5590 N.am   74  ALA74      -0.1978
    101  CA        15.7870   13.8170   68.3860 C.3    74  ALA74       0.1597
    102  C         16.6150   13.9210   67.1290 C.2    74  ALA74       0.2287
    103  O         16.1620   13.4750   66.0840 O.2    74  ALA74      -0.2864
    104  CB        15.1960   15.1470   68.7000 C.3    74  ALA74       0.0319
    105  N         18.9740   12.2680   65.8830 N.3    76  PHE76      -0.1241
    106  CA        19.2490   10.9490   65.2930 C.3    76  PHE76       0.1605
    107  C         18.0450   10.0090   65.1780 C.2    76  PHE76       0.2264
    108  O         18.1680    8.8580   64.7520 O.2    76  PHE76      -0.2867
    109  CB        20.2890   10.2470   66.1570 C.3    76  PHE76       0.0534
    110  CG        21.4260   11.1190   66.5530 C.ar   76  PHE76      -0.0203
    111  CD1       22.3140   11.5960   65.5900 C.ar   76  PHE76      -0.0042
    112  CD2       21.5550   11.5410   67.8710 C.ar   76  PHE76      -0.0042
    113  CE1       23.3160   12.4930   65.9150 C.ar   76  PHE76      -0.0003
    114  CE2       22.5590   12.4490   68.2330 C.ar   76  PHE76      -0.0003
    115  CZ        23.4480   12.9340   67.2400 C.ar   76  PHE76      -0.0000
    116  N         16.9340    8.6760   61.6250 N.3    79  ASP79      -0.1225
    117  CA        17.8400    7.6420   61.2250 C.3    79  ASP79       0.1805
    118  C         17.4070    6.3780   61.9560 C.2    79  ASP79       0.2598
    119  O         17.4260    5.2910   61.3800 O.2    79  ASP79      -0.2718
    120  CB        19.2570    7.9980   61.6480 C.3    79  ASP79       0.1424
    121  CG        20.2930    7.0470   61.0900 C.2    79  ASP79       0.3668
    122  OD1       20.2880    6.8310   59.8590 O.co2  79  ASP79      -0.2456
    123  OD2       21.1280    6.5330   61.8660 O.co2  79  ASP79      -0.2456
    124  N         17.0160    6.5150   63.2240 N.am   80  SER80      -0.1952
    125  CA        16.6290    5.3660   64.0220 C.3    80  SER80       0.1924
    126  C         15.3670    4.6470   63.5820 C.2    80  SER80       0.2314
    127  O         15.3360    3.4380   63.4680 O.2    80  SER80      -0.2863
    128  CB        16.5100    5.7890   65.4820 C.3    80  SER80       0.2116
    129  OG        17.8150    5.7370   66.0500 O.3    80  SER80      -0.2180
    130  N         16.0970    2.9130   60.2760 N.3    83  GLU83      -0.1245
    131  CA        16.9170    1.7090   60.3680 C.3    83  GLU83       0.1567
    132  C         15.9950    0.5670   60.8140 C.2    83  GLU83       0.2260
    133  O         16.0780   -0.5290   60.2810 O.2    83  GLU83      -0.2867
    134  CB        18.0530    1.9020   61.3870 C.3    83  GLU83       0.0388
    135  CG        18.6710    0.6280   61.8400 C.3    83  GLU83       0.1160
    136  CD        19.9430    0.8120   62.6630 C.2    83  GLU83       0.3649
    137  OE1       20.0520    1.7920   63.4460 O.co2  83  GLU83      -0.2457
    138  OE2       20.8450   -0.0510   62.5500 O.co2  83  GLU83      -0.2457
    139  N          9.6990    7.1190   71.9840 N.3    95  ILE95      -0.1231
    140  CA         9.4530    7.9620   73.1450 C.3    95  ILE95       0.1692
    141  C          9.9630    9.4040   72.8950 C.2    95  ILE95       0.2593
    142  O          9.2980   10.3830   73.2590 O.2    95  ILE95      -0.2718
    143  CB        10.1210    7.3340   74.4120 C.3    95  ILE95       0.0266
    144  CG1        9.5320    5.9390   74.6800 C.3    95  ILE95       0.0019
    145  CG2        9.8860    8.2180   75.6130 C.3    95  ILE95       0.0020
    146  CD1        8.0460    5.9410   75.0030 C.3    95  ILE95       0.0001
    147  N         11.1240    9.4950   72.2500 N.am   96  THR96      -0.1939
    148  CA        11.7650   10.7450   71.9010 C.3    96  THR96       0.2028
    149  C         10.8490   11.9350   71.5820 C.2    96  THR96       0.2642
    150  O          9.8990   11.8410   70.7860 O.2    96  THR96      -0.2714
    151  CB        12.7140   10.5500   70.7180 C.3    96  THR96       0.1808
    152  OG1       13.6880    9.5550   71.0450 O.3    96  THR96      -0.2208
    153  CG2       13.4150   11.8460   70.3870 C.3    96  THR96       0.0379
    154  N         11.1890   13.0660   72.2240 N.am   97  GLU97      -0.1976
    155  CA        10.4760   14.3460   72.1180 C.3    97  GLU97       0.1602
    156  C         11.3570   15.2820   71.3270 C.2    97  GLU97       0.2287
    157  O         12.5790   15.1500   71.3490 O.2    97  GLU97      -0.2864
    158  CB        10.2410   14.9240   73.5130 C.3    97  GLU97       0.0415
    159  CG         9.4660   16.2510   73.5670 C.3    97  GLU97       0.1163
    160  CD        10.2840   17.4960   73.0580 C.2    97  GLU97       0.3649
    161  OE1       11.5370   17.5870   73.3000 O.co2  97  GLU97      -0.2457
    162  OE2        9.6520   18.4000   72.4190 O.co2  97  GLU97      -0.2457
    163  N          6.8760   10.8580   73.8120 N.3   123  CYS123     -0.1235
    164  CA         6.4440   10.1530   75.0290 C.3   123  CYS123      0.1677
    165  C          5.2090    9.2900   74.9390 C.2   123  CYS123      0.2270
    166  O          4.4670    9.1580   75.9240 O.2   123  CYS123     -0.2867
    167  CB         6.3060   11.1340   76.2300 C.3   123  CYS123      0.0956
    168  SG         7.9170   11.8490   76.7970 S.3   123  CYS123     -0.0801
    169  N          7.1130    4.6370   79.6800 N.3   136  ILE136     -0.1245
    170  CA         7.6550    5.2590   80.8610 C.3   136  ILE136      0.1561
    171  C          6.6390    5.3420   82.0040 C.2   136  ILE136      0.2260
    172  O          6.9860    5.7550   83.1070 O.2   136  ILE136     -0.2867
    173  CB         8.2320    6.6830   80.4200 C.3   136  ILE136      0.0252
    174  CG1        7.1130    7.5650   79.8210 C.3   136  ILE136      0.0019
    175  CG2        9.3840    6.4800   79.3470 C.3   136  ILE136      0.0019
    176  CD1        7.6190    8.8380   79.0510 C.3   136  ILE136      0.0001
@<TRIPOS>BOND
     1   122   121   ar
     2   130   131    1
     3   133   132    2
     4   131   132    1
     5   131   134    1
     6   121   120    1
     7   121   123   ar
     8   117   116    1
     9   117   120    1
    10   117   118    1
    11   119   118    2
    12   134   135    1
    13   135   136    1
    14   118   124   am
    15   138   136   ar
    16   136   137   ar
    17   124   125    1
    18   127   126    2
    19   126   125    1
    20   125   128    1
    21   108   107    2
    22   107   106    1
    23   106   105    1
    24   106   109    1
    25   128   129    1
    26   111   113   ar
    27   111   110   ar
    28     9     7   am
    29   113   115   ar
    30   103   102    2
    31   109   110    1
    32    63    62    1
    33    63    64    1
    34    62    59    1
    35   110   112   ar
    36     8     7    2
    37     7     6    1
    38   102   101    1
    39   115   114   ar
    40    49    48    1
    41    59    60    1
    42    59    58    1
    43    64    58    1
    44   112   114   ar
    45     6     5    1
    46    50    48    1
    47    60    61    2
    48    58    53   am
    49   101   104    1
    50   101   100    1
    51    96    95    2
    52    91    90    1
    53    48    45    1
    54     5     2    1
    55    90    92    1
    56    90    87    1
    57    53    54    2
    58    53    52    1
    59    95   100   am
    60    95    94    1
    61    45    46    1
    62    45    44    1
    63    51    46   am
    64    51    52    1
    65    46    47    2
    66    52    55    1
    67    89    88    2
    68     2     1    1
    69     2     3    1
    70   153   151    1
    71    65    66    1
    72    88    87    1
    73    88    93   am
    74    87    86    1
    75   151   152    1
    76   151   148    1
    77   150   149    2
    78    94    93    1
    79    94    97    1
    80    93    99    1
    81    97    98    1
    82    86    76   am
    83    99    98    1
    84   156   157    2
    85   156   155    1
    86     3    10   am
    87     3     4    2
    88    67    66    1
    89    67    68    2
    90   149   148    1
    91   149   154   am
    92    10    11    1
    93    66    69    1
    94    55    57    1
    95    55    56    1
    96   148   147    1
    97   139   140    1
    98   155   154    1
    99   155   158    1
   100    74    75    1
   101   147   141   am
   102   162   160   ar
   103    11    12    1
   104    76    75    1
   105    76    77    2
   106    69    70    1
   107   141   140    1
   108   141   142    2
   109   160   161   ar
   110   160   159    1
   111    75    78    1
   112   140   143    1
   113    70    71    1
   114   158   159    1
   115   163   164    1
   116    12    13    2
   117    71    72    1
   118   143   144    1
   119   143   145    1
   120    78    79    1
   121   144   146    1
   122    72    73    1
   123   165   164    1
   124   165   166    2
   125   164   167    1
   126    19    18    1
   127    81    79   ar
   128    81    83   ar
   129    79    80   ar
   130    14    15    1
   131    83    84   ar
   132    80    82   ar
   133    20    18    1
   134   167   168    1
   135    18    15    1
   136    84    82   ar
   137    84    85    1
   138    15    16    1
   139    21    16   am
   140    21    22    1
   141    16    17    2
   142    22    23    1
   143    41    40    1
   144    41    42    1
   145    40    33   am
   146    23    24    2
   147    23    25   am
   148    35    36    1
   149    35    32    1
   150    42    43    2
   151   176   174    1
   152    33    32    1
   153    33    34    2
   154    25    26    1
   155   175   173    1
   156    36    37    1
   157    32    31    1
   158    31    27   am
   159   169   170    1
   160   174   173    1
   161   173   170    1
   162    26    27    1
   163    26    29    1
   164    27    28    2
   165    37    38    2
   166    37    39   am
   167    30    29    1
   168   170   171    1
   169   171   172    2
