@<TRIPOS>MOLECULE
tmp/1jlqA00.pdb
 168 168 0 0 0
SMALL
GASTEIGER

@<TRIPOS>ATOM
      1  N          7.4760  -30.1930   25.5560 N.3    89  PRO89      -0.2116
      2  CA         6.9700  -30.3230   24.1930 C.3    89  PRO89       0.1372
      3  C          6.0110  -29.1590   24.0110 C.2    89  PRO89       0.2244
      4  O          5.2670  -28.8450   24.9390 O.2    89  PRO89      -0.2868
      5  CB         6.2360  -31.6620   24.2260 C.3    89  PRO89       0.0268
      6  CG         6.9480  -32.4240   25.3320 C.3    89  PRO89       0.0207
      7  CD         7.1300  -31.3640   26.3760 C.3    89  PRO89       0.0892
      8  N          2.7330  -31.3410   18.5730 N.3    94  LEU94      -0.1231
      9  CA         1.9780  -32.5830   18.7780 C.3    94  LEU94       0.1693
     10  C          1.0500  -32.8520   17.5850 C.2    94  LEU94       0.2592
     11  O          0.6060  -31.9300   16.8840 O.2    94  LEU94      -0.2718
     12  CB         1.1050  -32.5010   20.0390 C.3    94  LEU94       0.0284
     13  CG         1.6900  -32.1370   21.4110 C.3    94  LEU94       0.0019
     14  CD1        0.5490  -32.1950   22.4260 C.3    94  LEU94       0.0001
     15  CD2        2.8320  -33.0880   21.8300 C.3    94  LEU94       0.0001
     16  N          0.7520  -34.1270   17.3760 N.am   95  LYS95      -0.1966
     17  CA        -0.1270  -34.5470   16.2890 C.3    95  LYS95       0.1728
     18  C         -1.4610  -34.9660   16.9340 C.2    95  LYS95       0.2616
     19  O         -1.4530  -35.5570   18.0210 O.2    95  LYS95      -0.2715
     20  CB         0.5340  -35.7110   15.5440 C.3    95  LYS95       0.0311
     21  CG         1.9590  -35.3890   15.0930 C.3    95  LYS95       0.0038
     22  CD         2.7480  -36.6400   14.7560 C.3    95  LYS95       0.0206
     23  CE         4.1630  -36.6080   15.3600 C.3    95  LYS95       0.1093
     24  NZ         4.1860  -36.5240   16.8620 N.3    95  LYS95      -0.1314
     25  N         -2.5950  -34.6750   16.2910 N.am   96  LYS96      -0.1963
     26  CA        -3.8840  -35.0140   16.8920 C.3    96  LYS96       0.1728
     27  C         -4.0640  -36.4860   17.2860 C.2    96  LYS96       0.2616
     28  O         -3.3200  -37.3580   16.8350 O.2    96  LYS96      -0.2715
     29  CB        -5.0330  -34.5750   15.9860 C.3    96  LYS96       0.0311
     30  CG        -5.1550  -35.3070   14.6800 C.3    96  LYS96       0.0038
     31  CD        -6.5890  -35.1640   14.1830 C.3    96  LYS96       0.0206
     32  CE        -6.7440  -35.5770   12.7330 C.3    96  LYS96       0.1093
     33  NZ        -6.0980  -34.5870   11.8150 N.3    96  LYS96      -0.1314
     34  N         -5.0490  -36.7560   18.1440 N.am   97  LYS97      -0.1977
     35  CA        -5.3270  -38.1220   18.6040 C.3    97  LYS97       0.1596
     36  C         -6.8220  -38.3960   18.7130 C.2    97  LYS97       0.2287
     37  O         -7.6260  -37.4710   18.7880 O.2    97  LYS97      -0.2864
     38  CB        -4.6990  -38.3510   19.9750 C.3    97  LYS97       0.0298
     39  CG        -3.2200  -38.1040   20.0130 C.3    97  LYS97       0.0038
     40  CD        -2.4550  -39.3930   20.1940 C.3    97  LYS97       0.0206
     41  CE        -1.0450  -39.2290   19.6710 C.3    97  LYS97       0.1093
     42  NZ        -1.1020  -38.8190   18.2380 N.3    97  LYS97      -0.1314
     43  N         -7.4610  -39.4340   24.5220 N.3   100  VAL100     -0.1245
     44  CA        -6.3330  -39.0380   25.3510 C.3   100  VAL100      0.1561
     45  C         -6.5850  -39.2000   26.8400 C.2   100  VAL100      0.2260
     46  O         -7.7090  -39.0470   27.3000 O.2   100  VAL100     -0.2867
     47  CB        -6.0040  -37.5820   25.1200 C.3   100  VAL100      0.0252
     48  CG1       -4.6990  -37.2830   25.7620 C.3   100  VAL100      0.0019
     49  CG2       -6.0000  -37.2630   23.6260 C.3   100  VAL100      0.0019
     50  N          1.1290  -43.3330   22.5300 N.3   173  VAL173     -0.1231
     51  CA         1.9680  -42.2150   22.9590 C.3   173  VAL173      0.1692
     52  C          2.0020  -41.9650   24.4600 C.2   173  VAL173      0.2592
     53  O          1.0610  -41.4010   25.0180 O.2   173  VAL173     -0.2718
     54  CB         1.4760  -40.9040   22.3230 C.3   173  VAL173      0.0266
     55  CG1        2.2300  -39.7100   22.9000 C.3   173  VAL173      0.0020
     56  CG2        1.6360  -40.9710   20.8310 C.3   173  VAL173      0.0020
     57  N          3.0840  -42.3470   25.1200 N.am  174  ILE174     -0.1966
     58  CA         3.1680  -42.0780   26.5450 C.3   174  ILE174      0.1727
     59  C          4.1100  -40.9000   26.7770 C.2   174  ILE174      0.2616
     60  O          5.2200  -40.8700   26.2380 O.2   174  ILE174     -0.2715
     61  CB         3.7210  -43.2700   27.3160 C.3   174  ILE174      0.0290
     62  CG1        2.9840  -44.5380   26.9090 C.3   174  ILE174      0.0022
     63  CG2        3.5610  -43.0330   28.8080 C.3   174  ILE174      0.0023
     64  CD1        3.6290  -45.7790   27.4750 C.3   174  ILE174      0.0001
     65  N          3.6590  -39.9210   27.5560 N.am  175  TYR175     -0.1974
     66  CA         4.5080  -38.7860   27.8780 C.3   175  TYR175      0.1639
     67  C          4.5270  -38.5580   29.3730 C.2   175  TYR175      0.2290
     68  O          3.4910  -38.3200   30.0010 O.2   175  TYR175     -0.2864
     69  CB         4.0480  -37.5040   27.2210 C.3   175  TYR175      0.0560
     70  CG         4.8880  -36.3550   27.7050 C.ar  175  TYR175     -0.0198
     71  CD1        4.3040  -35.1630   28.1220 C.ar  175  TYR175     -0.0009
     72  CD2        6.2740  -36.4690   27.7740 C.ar  175  TYR175     -0.0009
     73  CE1        5.0730  -34.1060   28.5880 C.ar  175  TYR175      0.0417
     74  CE2        7.0580  -35.4220   28.2440 C.ar  175  TYR175      0.0417
     75  CZ         6.4510  -34.2430   28.6490 C.ar  175  TYR175      0.1957
     76  OH         7.2220  -33.1990   29.0970 O.3   175  TYR175     -0.2866
     77  N          0.7970  -38.6220   30.4790 N.3   182  TYR182     -0.1227
     78  CA        -0.1400  -38.3970   29.4010 C.3   182  TYR182      0.1736
     79  C         -0.0030  -39.4720   28.3670 C.2   182  TYR182      0.2595
     80  O          1.0980  -39.7780   27.8970 O.2   182  TYR182     -0.2718
     81  CB         0.0930  -37.0530   28.7470 C.3   182  TYR182      0.0548
     82  CG         0.0590  -35.9460   29.7410 C.ar  182  TYR182     -0.0200
     83  CD1        1.0500  -35.8460   30.7240 C.ar  182  TYR182     -0.0009
     84  CD2       -0.9500  -34.9860   29.7030 C.ar  182  TYR182     -0.0009
     85  CE1        1.0430  -34.8120   31.6450 C.ar  182  TYR182      0.0417
     86  CE2       -0.9760  -33.9420   30.6190 C.ar  182  TYR182      0.0417
     87  CZ         0.0280  -33.8570   31.5880 C.ar  182  TYR182      0.1957
     88  OH         0.0330  -32.8120   32.4910 O.3   182  TYR182     -0.2866
     89  N         -1.1440  -40.0440   28.0150 N.am  183  VAL183     -0.1966
     90  CA        -1.1780  -41.0970   27.0300 C.3   183  VAL183      0.1727
     91  C         -2.1830  -40.7610   25.9380 C.2   183  VAL183      0.2616
     92  O         -3.3030  -40.3090   26.2150 O.2   183  VAL183     -0.2715
     93  CB        -1.5560  -42.4330   27.6740 C.3   183  VAL183      0.0290
     94  CG1       -1.1610  -43.5620   26.7430 C.3   183  VAL183      0.0023
     95  CG2       -0.8700  -42.5770   29.0340 C.3   183  VAL183      0.0023
     96  N         -1.7690  -40.9640   24.6930 N.am  184  GLY184     -0.1955
     97  CA        -2.6490  -40.6820   23.5800 C.3   184  GLY184      0.1869
     98  C         -2.6590  -41.8400   22.6060 C.2   184  GLY184      0.2309
     99  O         -1.7820  -42.7140   22.6480 O.2   184  GLY184     -0.2863
    100  N         -9.8480  -34.7100   29.2720 N.3   219  PRO219     -0.2116
    101  CA        -9.7740  -33.6300   28.2750 C.3   219  PRO219      0.1372
    102  C        -10.9040  -32.6460   28.4510 C.2   219  PRO219      0.2244
    103  O        -12.0200  -33.0550   28.7480 O.2   219  PRO219     -0.2868
    104  CB        -9.8840  -34.3790   26.9630 C.3   219  PRO219      0.0268
    105  CG        -9.1460  -35.6470   27.2660 C.3   219  PRO219      0.0207
    106  CD        -9.6710  -36.0190   28.6280 C.3   219  PRO219      0.0892
    107  N         -7.0970  -30.8590   28.3760 N.3   221  PHE221     -0.1241
    108  CA        -5.9680  -30.9100   29.2670 C.3   221  PHE221      0.1605
    109  C         -5.3660  -29.5100   29.2460 C.2   221  PHE221      0.2264
    110  O         -5.1280  -28.9490   28.1710 O.2   221  PHE221     -0.2867
    111  CB        -4.9590  -31.9550   28.7740 C.3   221  PHE221      0.0534
    112  CG        -5.3990  -33.3900   28.9830 C.ar  221  PHE221     -0.0203
    113  CD1       -6.4740  -33.7000   29.8030 C.ar  221  PHE221     -0.0042
    114  CD2       -4.6890  -34.4390   28.3990 C.ar  221  PHE221     -0.0042
    115  CE1       -6.8360  -35.0350   30.0450 C.ar  221  PHE221     -0.0003
    116  CE2       -5.0430  -35.7770   28.6360 C.ar  221  PHE221     -0.0003
    117  CZ        -6.1180  -36.0740   29.4610 C.ar  221  PHE221     -0.0000
    118  N         -2.4240  -27.3170   29.4270 N.3   223  TRP223     -0.1241
    119  CA        -0.9860  -27.4280   29.3290 C.3   223  TRP223      0.1605
    120  C         -0.2940  -26.1090   29.2480 C.2   223  TRP223      0.2264
    121  O         -0.0800  -25.5630   28.1640 O.2   223  TRP223     -0.2867
    122  CB        -0.6170  -28.2710   28.1200 C.3   223  TRP223      0.0550
    123  CG         0.8430  -28.5300   27.9410 C.ar  223  TRP223      0.0003
    124  CD1        1.6060  -28.1410   26.8800 C.ar  223  TRP223      0.0946
    125  CD2        1.6940  -29.3470   28.7730 C.ar  223  TRP223      0.0152
    126  NE1        2.8760  -28.6760   26.9830 N.ar  223  TRP223     -0.2442
    127  CE2        2.9570  -29.4210   28.1340 C.ar  223  TRP223      0.0810
    128  CE3        1.5140  -30.0280   29.9860 C.ar  223  TRP223      0.0012
    129  CZ2        4.0380  -30.1530   28.6700 C.ar  223  TRP223      0.0191
    130  CZ3        2.5980  -30.7610   30.5210 C.ar  223  TRP223      0.0001
    131  CH2        3.8370  -30.8140   29.8590 C.ar  223  TRP223      0.0015
    132  N         -5.8480  -28.2060   25.9400 N.3   228  LEU228     -0.1231
    133  CA        -5.6510  -29.3120   25.0040 C.3   228  LEU228      0.1693
    134  C         -6.8110  -30.2550   24.6980 C.2   228  LEU228      0.2592
    135  O         -7.3840  -30.8800   25.5870 O.2   228  LEU228     -0.2718
    136  CB        -4.4400  -30.1410   25.4540 C.3   228  LEU228      0.0284
    137  CG        -3.0780  -29.8180   24.8110 C.3   228  LEU228      0.0019
    138  CD1       -2.8870  -28.3330   24.6450 C.3   228  LEU228      0.0001
    139  CD2       -1.9650  -30.3960   25.6570 C.3   228  LEU228      0.0001
    140  N         -7.1420  -30.3450   23.4140 N.am  229  HIS229     -0.1962
    141  CA        -8.1900  -31.2340   22.9390 C.3   229  HIS229      0.1772
    142  C         -7.4770  -32.1900   21.9980 C.2   229  HIS229      0.2462
    143  O         -6.3720  -31.8990   21.5490 O.2   229  HIS229     -0.2730
    144  CB        -9.2640  -30.4510   22.1950 C.3   229  HIS229      0.0785
    145  CG        -9.9290  -29.4150   23.0440 C.ar  229  HIS229      0.0821
    146  ND1      -10.8790  -28.5470   22.5550 N.ar  229  HIS229     -0.2267
    147  CD2       -9.7740  -29.1120   24.3510 C.ar  229  HIS229      0.1154
    148  CE1      -11.2810  -27.7490   23.5290 C.ar  229  HIS229      0.1986
    149  NE2      -10.6260  -28.0700   24.6290 N.ar  229  HIS229     -0.2212
    150  N         -8.0890  -33.3440   21.6900 N.am  230  PRO230     -0.2727
    151  CA        -7.4910  -34.3520   20.8030 C.3   230  PRO230      0.1402
    152  C         -7.4070  -33.9670   19.3400 C.2   230  PRO230      0.2269
    153  O         -6.7350  -34.6310   18.5590 O.2   230  PRO230     -0.2865
    154  CB        -8.3820  -35.5700   21.0070 C.3   230  PRO230      0.0296
    155  CG        -8.9200  -35.3670   22.3910 C.3   230  PRO230      0.0237
    156  CD        -9.2640  -33.9030   22.3730 C.3   230  PRO230      0.0939
    157  N         -3.0610  -29.0920   15.1430 N.3   311  TYR311     -0.1241
    158  CA        -1.8790  -29.8540   15.5300 C.3   311  TYR311      0.1605
    159  C         -1.0240  -30.0920   14.2830 C.2   311  TYR311      0.2264
    160  O         -1.3750  -29.6460   13.1780 O.2   311  TYR311     -0.2867
    161  CB        -2.2640  -31.1930   16.1760 C.3   311  TYR311      0.0534
    162  CG        -2.8190  -31.0620   17.5820 C.ar  311  TYR311     -0.0201
    163  CD1       -2.1900  -30.2380   18.5200 C.ar  311  TYR311     -0.0009
    164  CD2       -3.9770  -31.7510   17.9740 C.ar  311  TYR311     -0.0009
    165  CE1       -2.6950  -30.0930   19.8100 C.ar  311  TYR311      0.0417
    166  CE2       -4.4930  -31.6130   19.2720 C.ar  311  TYR311      0.0417
    167  CZ        -3.8450  -30.7740   20.1810 C.ar  311  TYR311      0.1957
    168  OH        -4.3490  -30.5650   21.4460 O.3   311  TYR311     -0.2866
@<TRIPOS>BOND
     1    33    32    1
     2    32    31    1
     3   160   159    2
     4    31    30    1
     5   159   158    1
     6    30    29    1
     7    22    21    1
     8    22    23    1
     9    21    20    1
    10   157   158    1
    11    23    24    1
    12   158   161    1
    13    20    17    1
    14    29    26    1
    15   161   162    1
    16    17    18    1
    17    17    16    1
    18    25    26    1
    19    25    18   am
    20    28    27    2
    21    11    10    2
    22    26    27    1
    23    18    19    2
    24    27    34   am
    25    16    10   am
    26   162   164   ar
    27   162   163   ar
    28    10     9    1
    29   164   166   ar
    30    34    35    1
    31    42    41    1
    32   163   165   ar
    33   153   152    2
    34     8     9    1
    35    35    36    1
    36    35    38    1
    37    36    37    2
    38     9    12    1
    39   166   167   ar
    40   152   151    1
    41    41    40    1
    42   165   167   ar
    43    38    39    1
    44    39    40    1
    45    12    13    1
    46   167   168    1
    47   151   154    1
    48   151   150    1
    49    56    54    1
    50   154   155    1
    51    13    15    1
    52    13    14    1
    53   143   142    2
    54   150   142   am
    55   150   156    1
    56   142   141    1
    57   144   141    1
    58   144   145    1
    59    54    55    1
    60    54    51    1
    61   156   155    1
    62    50    51    1
    63   146   145   ar
    64   146   148   ar
    65    98    99    2
    66    98    97    1
    67   141   140    1
    68    51    52    1
    69   145   147   ar
    70   140   134   am
    71   148   149   ar
    72    97    96    1
    73    49    47    1
    74     3     2    1
    75     3     4    2
    76     2     5    1
    77     2     1    1
    78     5     6    1
    79   147   149   ar
    80    52    53    2
    81    52    57   am
    82    43    44    1
    83   138   137    1
    84    96    91   am
    85   134   133    1
    86   134   135    2
    87   137   136    1
    88   137   139    1
    89   133   136    1
    90   133   132    1
    91    57    58    1
    92    47    44    1
    93    47    48    1
    94     6     7    1
    95    44    45    1
    96     1     7    1
    97    91    92    2
    98    91    90    1
    99    60    59    2
   100    58    59    1
   101    58    61    1
   102    94    93    1
   103    59    65   am
   104    45    46    2
   105   124   126   ar
   106   124   123   ar
   107    62    61    1
   108    62    64    1
   109   104   105    1
   110   104   101    1
   111   126   127   ar
   112    90    93    1
   113    90    89    1
   114    69    70    1
   115    69    66    1
   116   105   106    1
   117    61    63    1
   118    65    66    1
   119    93    95    1
   120    70    72   ar
   121    70    71   ar
   122    72    74   ar
   123    66    67    1
   124    80    79    2
   125   123   122    1
   126   123   125   ar
   127    89    79   am
   128   122   119    1
   129    71    73   ar
   130   127   129   ar
   131   127   125   ar
   132   121   120    2
   133   110   109    2
   134    74    75   ar
   135   101   102    1
   136   101   100    1
   137    79    78    1
   138   107   108    1
   139   114   116   ar
   140   114   112   ar
   141   102   103    2
   142    73    75   ar
   143   106   100    1
   144   116   117   ar
   145    75    76    1
   146   129   131   ar
   147    81    78    1
   148    81    82    1
   149   125   128   ar
   150   111   112    1
   151   111   108    1
   152   112   113   ar
   153   109   108    1
   154   120   119    1
   155   119   118    1
   156    67    68    2
   157    78    77    1
   158   117   115   ar
   159    84    82   ar
   160    84    86   ar
   161    82    83   ar
   162   113   115   ar
   163   131   130   ar
   164   128   130   ar
   165    86    87   ar
   166    83    85   ar
   167    87    85   ar
   168    87    88    1
