@<TRIPOS>MOLECULE
tmp/1jlrB00.pdb
 139 135 0 0 0
SMALL
GASTEIGER

@<TRIPOS>ATOM
      1  N          4.8790   66.5950   63.2640 N.3    66  GLU66      -0.1245
      2  CA         5.8560   66.0870   64.2280 C.3    66  GLU66       0.1567
      3  C          6.2190   64.6550   63.8290 C.2    66  GLU66       0.2260
      4  O          7.3880   64.2700   63.8590 O.2    66  GLU66      -0.2867
      5  CB         5.2940   66.0860   65.6630 C.3    66  GLU66       0.0388
      6  CG         5.1470   67.4590   66.3430 C.3    66  GLU66       0.1160
      7  CD         6.4760   68.1010   66.7620 C.2    66  GLU66       0.3649
      8  OE1        6.4380   69.1290   67.4790 O.co2  66  GLU66      -0.2457
      9  OE2        7.5520   67.5950   66.3780 O.co2  66  GLU66      -0.2457
     10  N          8.6140   64.4950   60.8330 N.3    69  LEU69      -0.1245
     11  CA         9.9640   64.9260   61.1770 C.3    69  LEU69       0.1561
     12  C         10.7830   63.7580   61.7060 C.2    69  LEU69       0.2260
     13  O         12.0100   63.8020   61.6960 O.2    69  LEU69      -0.2867
     14  CB         9.9130   66.0590   62.2080 C.3    69  LEU69       0.0270
     15  CG         9.3460   67.3850   61.6710 C.3    69  LEU69       0.0019
     16  CD1        9.1610   68.3770   62.8110 C.3    69  LEU69       0.0001
     17  CD2       10.2790   67.9600   60.6060 C.3    69  LEU69       0.0001
     18  N         13.3920   62.0660   59.4090 N.3    72  LEU72      -0.1245
     19  CA        14.6340   62.7470   59.0680 C.3    72  LEU72       0.1561
     20  C         15.7740   62.0160   59.7720 C.2    72  LEU72       0.2260
     21  O         15.5500   61.2900   60.7430 O.2    72  LEU72      -0.2867
     22  CB        14.5820   64.2100   59.5300 C.3    72  LEU72       0.0270
     23  CG        13.5480   65.1330   58.8690 C.3    72  LEU72       0.0019
     24  CD1       13.4580   66.4520   59.6220 C.3    72  LEU72       0.0001
     25  CD2       13.9320   65.3660   57.4160 C.3    72  LEU72       0.0001
     26  N         18.9570   61.3240   62.1910 N.3    74  PHE74      -0.1241
     27  CA        19.3350   61.8130   63.5100 C.3    74  PHE74       0.1605
     28  C         20.7800   61.4440   63.8310 C.2    74  PHE74       0.2264
     29  O         21.2440   60.3590   63.4840 O.2    74  PHE74      -0.2867
     30  CB        18.3940   61.2510   64.5820 C.3    74  PHE74       0.0534
     31  CG        17.0210   61.8860   64.5860 C.ar   74  PHE74      -0.0203
     32  CD1       15.9900   61.3690   63.8060 C.ar   74  PHE74      -0.0042
     33  CD2       16.7610   63.0070   65.3760 C.ar   74  PHE74      -0.0042
     34  CE1       14.7210   61.9570   63.8180 C.ar   74  PHE74      -0.0003
     35  CE2       15.5060   63.5950   65.3920 C.ar   74  PHE74      -0.0003
     36  CZ        14.4820   63.0680   64.6110 C.ar   74  PHE74      -0.0000
     37  N         19.2150   66.9260   65.7650 N.3    92  PHE92      -0.1227
     38  CA        18.3880   67.1500   64.5730 C.3    92  PHE92       0.1736
     39  C         19.2550   67.3080   63.3200 C.2    92  PHE92       0.2595
     40  O         20.3260   67.9120   63.3770 O.2    92  PHE92      -0.2718
     41  CB        17.5740   68.4450   64.7310 C.3    92  PHE92       0.0547
     42  CG        16.3760   68.3370   65.6480 C.ar   92  PHE92      -0.0202
     43  CD1       16.1270   69.3270   66.5970 C.ar   92  PHE92      -0.0042
     44  CD2       15.4540   67.2990   65.5140 C.ar   92  PHE92      -0.0042
     45  CE1       14.9820   69.2910   67.3940 C.ar   92  PHE92      -0.0003
     46  CE2       14.2990   67.2590   66.3120 C.ar   92  PHE92      -0.0003
     47  CZ        14.0660   68.2570   67.2500 C.ar   92  PHE92      -0.0000
     48  N         18.7900   66.7810   62.1890 N.am   93  TYR93      -0.1962
     49  CA        19.5240   66.9280   60.9290 C.3    93  TYR93       0.1771
     50  C         19.4200   68.4190   60.6080 C.2    93  TYR93       0.2620
     51  O         18.4160   69.0490   60.9410 O.2    93  TYR93      -0.2715
     52  CB        18.8630   66.1050   59.8240 C.3    93  TYR93       0.0574
     53  CG        19.6930   65.9640   58.5660 C.ar   93  TYR93      -0.0198
     54  CD1       20.0550   67.0760   57.8080 C.ar   93  TYR93      -0.0009
     55  CD2       20.1000   64.7110   58.1250 C.ar   93  TYR93      -0.0009
     56  CE1       20.8020   66.9380   56.6370 C.ar   93  TYR93       0.0417
     57  CE2       20.8420   64.5580   56.9590 C.ar   93  TYR93       0.0417
     58  CZ        21.1900   65.6740   56.2190 C.ar   93  TYR93       0.1957
     59  OH        21.9220   65.5170   55.0620 O.3    93  TYR93      -0.2866
     60  N         20.4240   68.9860   59.9500 N.am   94  SER94      -0.1936
     61  CA        20.3970   70.4240   59.6810 C.3    94  SER94       0.2055
     62  C         20.1450   70.9720   58.2710 C.2    94  SER94       0.2643
     63  O         20.5920   72.0780   57.9680 O.2    94  SER94      -0.2714
     64  CB        21.6920   71.0510   60.2030 C.3    94  SER94       0.2130
     65  OG        22.8050   70.5800   59.4590 O.3    94  SER94      -0.2179
     66  N         19.4420   70.2540   57.4060 N.am   95  LYS95      -0.1963
     67  CA        19.2050   70.8040   56.0710 C.3    95  LYS95       0.1728
     68  C         17.8380   70.4530   55.5080 C.2    95  LYS95       0.2616
     69  O         17.7170   69.6090   54.6220 O.2    95  LYS95      -0.2715
     70  CB        20.3020   70.3430   55.1100 C.3    95  LYS95       0.0311
     71  CG        21.5920   71.1420   55.2150 C.3    95  LYS95       0.0038
     72  CD        21.3840   72.5670   54.7270 C.3    95  LYS95       0.0206
     73  CE        22.6480   73.4020   54.8660 C.3    95  LYS95       0.1093
     74  NZ        23.0210   73.6410   56.2900 N.3    95  LYS95      -0.1314
     75  N         16.8060   71.1190   56.0110 N.am   96  ILE96      -0.1977
     76  CA        15.4590   70.8340   55.5540 C.3    96  ILE96       0.1596
     77  C         14.7540   72.0540   54.9800 C.2    96  ILE96       0.2287
     78  O         15.2990   73.1530   54.9610 O.2    96  ILE96      -0.2864
     79  CB        14.5960   70.2580   56.6980 C.3    96  ILE96       0.0276
     80  CG1       14.4330   71.3040   57.8040 C.3    96  ILE96       0.0022
     81  CG2       15.2400   68.9950   57.2510 C.3    96  ILE96       0.0022
     82  CD1       13.4360   70.9150   58.8700 C.3    96  ILE96       0.0001
     83  N          6.5280   74.3980   64.4930 N.3   115  VAL115     -0.1231
     84  CA         7.5230   73.5740   65.1490 C.3   115  VAL115      0.1692
     85  C          8.9290   73.8530   64.6200 C.2   115  VAL115      0.2592
     86  O          9.9130   73.6380   65.3280 O.2   115  VAL115     -0.2718
     87  CB         7.1670   72.0810   65.0080 C.3   115  VAL115      0.0266
     88  CG1        5.8190   71.8240   65.6600 C.3   115  VAL115      0.0020
     89  CG2        7.1200   71.6750   63.5610 C.3   115  VAL115      0.0020
     90  N          9.0280   74.3450   63.3870 N.am  116  CYS116     -0.1956
     91  CA        10.3300   74.6680   62.8060 C.3   116  CYS116      0.1843
     92  C         10.3780   76.1400   62.4520 C.2   116  CYS116      0.2625
     93  O         10.2880   76.4990   61.2820 O.2   116  CYS116     -0.2714
     94  CB        10.5880   73.8610   61.5370 C.3   116  CYS116      0.0997
     95  SG        10.7860   72.1110   61.7990 S.3   116  CYS116     -0.0797
     96  N         10.5240   76.9970   63.4540 N.am  117  ARG117     -0.1963
     97  CA        10.5620   78.4280   63.1970 C.3   117  ARG117      0.1729
     98  C         11.6850   78.7930   62.2360 C.2   117  ARG117      0.2617
     99  O         12.8430   78.4230   62.4370 O.2   117  ARG117     -0.2715
    100  CB        10.6760   79.1990   64.5180 C.3   117  ARG117      0.0348
    101  CG        11.7410   78.6920   65.4800 C.3   117  ARG117      0.0492
    102  CD        11.2790   78.8620   66.9210 C.3   117  ARG117      0.2205
    103  NE        12.3910   78.9330   67.8720 N.pl3 117  ARG117     -0.0865
    104  CZ        13.2670   77.9590   68.1020 C.cat 117  ARG117      0.5346
    105  NH1       13.1840   76.8060   67.4510 N.pl3 117  ARG117      0.1354
    106  NH2       14.2310   78.1400   68.9930 N.pl3 117  ARG117      0.1354
    107  N         11.3080   79.4880   61.1640 N.am  118  GLY118     -0.1940
    108  CA        12.2630   79.9030   60.1550 C.3   118  GLY118      0.2014
    109  C         12.5570   78.9120   59.0360 C.2   118  GLY118      0.2639
    110  O         13.4540   79.1760   58.2300 O.2   118  GLY118     -0.2714
    111  N         11.8460   77.7810   58.9600 N.am  119  VAL119     -0.1963
    112  CA        12.1280   76.8360   57.8770 C.3   119  VAL119      0.1727
    113  C         11.8280   77.4790   56.5480 C.2   119  VAL119      0.2616
    114  O         10.8130   78.1600   56.3830 O.2   119  VAL119     -0.2715
    115  CB        11.2930   75.5220   57.9120 C.3   119  VAL119      0.0290
    116  CG1       12.0580   74.4410   58.6120 C.3   119  VAL119      0.0023
    117  CG2        9.9470   75.7550   58.5560 C.3   119  VAL119      0.0023
    118  N         12.7300   77.2610   55.6020 N.am  120  ARG120     -0.1977
    119  CA        12.5670   77.7840   54.2680 C.3   120  ARG120      0.1597
    120  C         11.3230   77.1130   53.6940 C.2   120  ARG120      0.2287
    121  O         11.0650   75.9460   53.9660 O.2   120  ARG120     -0.2864
    122  CB        13.7960   77.4450   53.4470 C.3   120  ARG120      0.0334
    123  CG        15.0560   78.0750   53.9810 C.3   120  ARG120      0.0492
    124  CD        16.2380   77.7800   53.0820 C.3   120  ARG120      0.2205
    125  NE        17.0920   78.9550   52.9640 N.pl3 120  ARG120     -0.0865
    126  CZ        17.8490   79.4240   53.9470 C.cat 120  ARG120      0.5346
    127  NH1       17.8610   78.7970   55.1130 N.pl3 120  ARG120      0.1354
    128  NH2       18.5570   80.5380   53.7810 N.pl3 120  ARG120      0.1354
    129  N         19.0390   69.9130   50.1870 N.3   149  ARG149     -0.1245
    130  CA        18.1680   69.6950   51.3280 C.3   149  ARG149      0.1563
    131  C         17.2460   68.4930   51.2480 C.2   149  ARG149      0.2260
    132  O         17.1350   67.8350   50.2100 O.2   149  ARG149     -0.2867
    133  CB        17.3040   70.9360   51.5420 C.3   149  ARG149      0.0307
    134  CG        18.0920   72.2030   51.7470 C.3   149  ARG149      0.0489
    135  CD        17.1900   73.4190   51.7180 C.3   149  ARG149      0.2205
    136  NE        17.9440   74.6260   52.0240 N.pl3 149  ARG149     -0.0865
    137  CZ        18.2200   75.0400   53.2550 C.cat 149  ARG149      0.5346
    138  NH1       17.7960   74.3530   54.3090 N.pl3 149  ARG149      0.1354
    139  NH2       18.9420   76.1360   53.4350 N.pl3 149  ARG149      0.1354
@<TRIPOS>BOND
     1   129   130    1
     2   132   131    2
     3   131   130    1
     4   130   133    1
     5   133   134    1
     6   135   134    1
     7   135   136    1
     8   136   137    2
     9   125   124    1
    10   125   126    2
    11   124   123    1
    12   137   139    1
    13   137   138    1
    14   122   123    1
    15   122   119    1
    16   120   121    2
    17   120   119    1
    18   128   126    1
    19   126   127    1
    20   119   118    1
    21    69    68    2
    22    72    73    1
    23    72    71    1
    24    73    74    1
    25    78    77    2
    26    77    76    1
    27    59    58    1
    28    70    71    1
    29    70    67    1
    30    68    75   am
    31    68    67    1
    32    76    75    1
    33    76    79    1
    34   118   113   am
    35    67    66    1
    36    58    56   ar
    37    58    57   ar
    38   114   113    2
    39   113   112    1
    40    56    54   ar
    41    79    81    1
    42    79    80    1
    43    57    55   ar
    44    66    62   am
    45    25    23    1
    46    80    82    1
    47    54    53   ar
    48   112   115    1
    49   112   111    1
    50   115   117    1
    51   115   116    1
    52    63    62    2
    53    55    53   ar
    54   110   109    2
    55    62    61    1
    56    53    52    1
    57    23    22    1
    58    23    24    1
    59   111   109   am
    60   109   108    1
    61    19    18    1
    62    19    22    1
    63    19    20    1
    64    65    64    1
    65    61    60    1
    66    61    64    1
    67    20    21    2
    68    52    49    1
    69    60    50   am
    70   108   107    1
    71    17    15    1
    72    50    49    1
    73    50    51    2
    74    10    11    1
    75    49    48    1
    76   107    98   am
    77    11    12    1
    78    11    14    1
    79    93    92    2
    80    94    95    1
    81    94    91    1
    82    15    14    1
    83    15    16    1
    84    13    12    2
    85    48    39   am
    86    26    27    1
    87    98    99    2
    88    98    97    1
    89    92    91    1
    90    92    96   am
    91    91    90    1
    92    97    96    1
    93    97   100    1
    94     1     2    1
    95    39    40    2
    96    39    38    1
    97    90    85   am
    98    29    28    2
    99    27    28    1
   100    27    30    1
   101    89    87    1
   102    32    34   ar
   103    32    31   ar
   104    34    36   ar
   105     3     4    2
   106     3     2    1
   107     2     5    1
   108    83    84    1
   109   100   101    1
   110    38    41    1
   111    38    37    1
   112    30    31    1
   113    31    33   ar
   114    36    35   ar
   115    85    84    1
   116    85    86    2
   117    41    42    1
   118    87    84    1
   119    87    88    1
   120    33    35   ar
   121   101   102    1
   122    44    42   ar
   123    44    46   ar
   124    42    43   ar
   125     5     6    1
   126    46    47   ar
   127     6     7    1
   128     9     7   ar
   129    43    45   ar
   130     7     8   ar
   131   102   103    1
   132    47    45   ar
   133   105   104    1
   134   103   104    2
   135   104   106    1
