@<TRIPOS>MOLECULE
tmp/1jlsA01.pdb
 160 159 0 0 0
SMALL
GASTEIGER

@<TRIPOS>ATOM
      1  N         39.4050   46.6500   40.6610 N.3    90  ILE90      -0.1231
      2  CA        40.8330   46.7600   40.9260 C.3    90  ILE90       0.1692
      3  C         41.0190   47.7060   42.1330 C.2    90  ILE90       0.2592
      4  O         40.6340   48.8760   42.0790 O.2    90  ILE90      -0.2718
      5  CB        41.5740   47.2570   39.6720 C.3    90  ILE90       0.0266
      6  CG1       41.3090   46.3040   38.5240 C.3    90  ILE90       0.0019
      7  CG2       43.0550   47.2670   39.9090 C.3    90  ILE90       0.0020
      8  CD1       42.0530   46.6580   37.2740 C.3    90  ILE90       0.0001
      9  N         41.6080   47.1790   43.2170 N.am   91  VAL91      -0.1966
     10  CA        41.7560   47.9100   44.4900 C.3    91  VAL91       0.1727
     11  C         42.0330   49.3980   44.4890 C.2    91  VAL91       0.2616
     12  O         43.0320   49.8880   43.9610 O.2    91  VAL91      -0.2715
     13  CB        42.7610   47.2590   45.4660 C.3    91  VAL91       0.0290
     14  CG1       42.6670   47.9310   46.8300 C.3    91  VAL91       0.0023
     15  CG2       42.4530   45.8000   45.6250 C.3    91  VAL91       0.0023
     16  N         41.1020   50.0900   45.1380 N.am   92  ARG92      -0.1963
     17  CA        41.0790   51.5320   45.2930 C.3    92  ARG92       0.1729
     18  C         40.3400   52.1800   44.1420 C.2    92  ARG92       0.2616
     19  O         39.1170   52.3150   44.2000 O.2    92  ARG92      -0.2715
     20  CB        42.4900   52.0940   45.4370 C.3    92  ARG92       0.0348
     21  CG        42.9970   52.1160   46.8750 C.3    92  ARG92       0.0492
     22  CD        42.8350   53.4800   47.5230 C.3    92  ARG92       0.2205
     23  NE        43.3860   54.5430   46.6710 N.pl3  92  ARG92      -0.0865
     24  CZ        43.8280   55.7240   47.1030 C.cat  92  ARG92       0.5346
     25  NH1       43.8000   56.0300   48.3950 N.pl3  92  ARG92       0.1354
     26  NH2       44.3030   56.6030   46.2340 N.pl3  92  ARG92       0.1354
     27  N         41.0380   52.5550   43.0810 N.am   93  ALA93      -0.1977
     28  CA        40.3420   53.2290   41.9910 C.3    93  ALA93       0.1597
     29  C         39.0460   52.5450   41.5670 C.2    93  ALA93       0.2287
     30  O         38.0170   53.2020   41.4660 O.2    93  ALA93      -0.2864
     31  CB        41.2700   53.4150   40.7890 C.3    93  ALA93       0.0319
     32  N         52.5880   47.6080   40.1960 N.3   117  ARG117     -0.1245
     33  CA        53.8440   47.5520   39.4490 C.3   117  ARG117      0.1563
     34  C         54.9570   47.0800   40.3820 C.2   117  ARG117      0.2260
     35  O         54.8520   47.1900   41.6060 O.2   117  ARG117     -0.2867
     36  CB        54.2100   48.9250   38.8670 C.3   117  ARG117      0.0307
     37  CG        53.2260   49.5140   37.8410 C.3   117  ARG117      0.0489
     38  CD        53.1670   48.7100   36.5420 C.3   117  ARG117      0.2205
     39  NE        52.6420   49.4830   35.4080 N.pl3 117  ARG117     -0.0865
     40  CZ        51.3880   49.9220   35.2890 C.cat 117  ARG117      0.5346
     41  NH1       50.4890   49.6760   36.2330 N.pl3 117  ARG117      0.1354
     42  NH2       51.0270   50.6100   34.2140 N.pl3 117  ARG117      0.1354
     43  N         37.4290   49.6970   36.7030 N.3   144  ASP144     -0.1225
     44  CA        38.6500   50.4890   36.7960 C.3   144  ASP144      0.1790
     45  C         38.3280   51.7700   36.0460 C.2   144  ASP144      0.2440
     46  O         38.1160   51.7590   34.8390 O.2   144  ASP144     -0.2733
     47  CB        39.8420   49.7650   36.1460 C.3   144  ASP144      0.1423
     48  CG        41.1830   50.4460   36.4280 C.2   144  ASP144      0.3668
     49  OD1       42.1450   50.1500   35.6860 O.co2 144  ASP144     -0.2456
     50  OD2       41.2900   51.2600   37.3800 O.co2 144  ASP144     -0.2456
     51  N         38.2570   52.8940   36.7610 N.am  145  PRO145     -0.2718
     52  CA        37.9470   54.1780   36.1260 C.3   145  PRO145      0.1535
     53  C         38.9190   54.6890   35.0800 C.2   145  PRO145      0.2598
     54  O         38.5130   55.3920   34.1670 O.2   145  PRO145     -0.2715
     55  CB        37.8570   55.1300   37.3130 C.3   145  PRO145      0.0310
     56  CG        38.8090   54.5090   38.3130 C.3   145  PRO145      0.0237
     57  CD        38.4190   53.0590   38.2180 C.3   145  PRO145      0.0939
     58  N         40.1950   54.3510   35.2090 N.am  146  MET146     -0.1964
     59  CA        41.1880   54.8600   34.2750 C.3   146  MET146      0.1736
     60  C         41.7910   53.7990   33.3920 C.2   146  MET146      0.2617
     61  O         41.8790   52.6430   33.7740 O.2   146  MET146     -0.2715
     62  CB        42.3020   55.5600   35.0480 C.3   146  MET146      0.0427
     63  CG        42.3820   57.0570   34.7920 C.3   146  MET146      0.0599
     64  SD        41.0610   58.0080   35.5450 S.3   146  MET146     -0.1393
     65  CE        41.9990   59.1840   36.4460 C.3   146  MET146      0.0692
     66  N         42.2080   54.1890   32.2030 N.am  147  CYS147     -0.1954
     67  CA        42.8200   53.2320   31.3120 C.3   147  CYS147      0.1843
     68  C         44.0420   53.9030   30.7170 C.2   147  CYS147      0.2625
     69  O         44.0370   54.2890   29.5550 O.2   147  CYS147     -0.2714
     70  CB        41.8440   52.8420   30.2090 C.3   147  CYS147      0.0997
     71  SG        42.4290   51.5120   29.1180 S.3   147  CYS147     -0.0797
     72  N         45.0950   54.0560   31.5000 N.am  148  ALA148     -0.1963
     73  CA        46.2400   54.7440   30.9550 C.3   148  ALA148      0.1728
     74  C         46.9780   53.9330   29.9070 C.2   148  ALA148      0.2617
     75  O         46.6870   54.0280   28.7160 O.2   148  ALA148     -0.2715
     76  CB        47.1860   55.1400   32.0680 C.3   148  ALA148      0.0334
     77  N         47.9430   53.1480   30.3760 N.am  149  THR149     -0.1937
     78  CA        48.7580   52.2970   29.5270 C.3   149  THR149      0.2028
     79  C         48.1250   50.9130   29.4470 C.2   149  THR149      0.2642
     80  O         48.4280   50.1280   28.5490 O.2   149  THR149     -0.2714
     81  CB        50.1640   52.1710   30.1000 C.3   149  THR149      0.1808
     82  OG1       50.0910   51.5830   31.3970 O.3   149  THR149     -0.2208
     83  CG2       50.8170   53.5350   30.2200 C.3   149  THR149      0.0379
     84  N         47.2400   50.6340   30.4000 N.am  150  ALA150     -0.1963
     85  CA        46.5260   49.3610   30.4840 C.3   150  ALA150      0.1728
     86  C         47.3630   48.2010   31.0330 C.2   150  ALA150      0.2617
     87  O         47.0530   47.0380   30.7820 O.2   150  ALA150     -0.2715
     88  CB        45.9490   48.9860   29.1170 C.3   150  ALA150      0.0334
     89  N         48.4090   48.5110   31.7890 N.am  151  GLY151     -0.1940
     90  CA        49.2250   47.4590   32.3570 C.3   151  GLY151      0.2014
     91  C         48.4780   46.7230   33.4540 C.2   151  GLY151      0.2640
     92  O         48.5190   45.4970   33.5240 O.2   151  GLY151     -0.2714
     93  N         47.7720   47.4700   34.2990 N.am  152  SER152     -0.1935
     94  CA        47.0150   46.8860   35.4060 C.3   152  SER152      0.2055
     95  C         45.7640   46.1470   34.9580 C.2   152  SER152      0.2642
     96  O         45.5020   45.0440   35.4200 O.2   152  SER152     -0.2714
     97  CB        46.6070   47.9670   36.4150 C.3   152  SER152      0.2130
     98  OG        47.7360   48.5930   36.9970 O.3   152  SER152     -0.2179
     99  N         44.9880   46.7540   34.0670 N.am  153  VAL153     -0.1977
    100  CA        43.7560   46.1200   33.6050 C.3   153  VAL153      0.1596
    101  C         44.0510   44.8290   32.8570 C.2   153  VAL153      0.2287
    102  O         43.2750   43.8700   32.9190 O.2   153  VAL153     -0.2864
    103  CB        42.9280   47.0750   32.7040 C.3   153  VAL153      0.0276
    104  CG1       43.6730   47.3520   31.4140 C.3   153  VAL153      0.0022
    105  CG2       41.5660   46.4810   32.4310 C.3   153  VAL153      0.0022
    106  N         52.7080   59.0130   33.1270 N.3   207  TYR207     -0.1227
    107  CA        51.7240   58.0360   32.6810 C.3   207  TYR207      0.1736
    108  C         50.3250   58.4280   33.1730 C.2   207  TYR207      0.2595
    109  O         49.6070   57.6340   33.7810 O.2   207  TYR207     -0.2718
    110  CB        52.1010   56.6430   33.1920 C.3   207  TYR207      0.0548
    111  CG        53.5280   56.2610   32.8720 C.ar  207  TYR207     -0.0200
    112  CD1       54.4430   55.9690   33.8940 C.ar  207  TYR207     -0.0009
    113  CD2       53.9780   56.2190   31.5500 C.ar  207  TYR207     -0.0009
    114  CE1       55.7790   55.6430   33.6040 C.ar  207  TYR207      0.0417
    115  CE2       55.3070   55.8980   31.2510 C.ar  207  TYR207      0.0417
    116  CZ        56.1970   55.6120   32.2790 C.ar  207  TYR207      0.1957
    117  OH        57.4970   55.2990   31.9610 O.3   207  TYR207     -0.2866
    118  N         49.9690   59.6820   32.9190 N.am  208  TYR208     -0.1976
    119  CA        48.6770   60.2460   33.2900 C.3   208  TYR208      0.1639
    120  C         48.0470   60.7180   31.9930 C.2   208  TYR208      0.2290
    121  O         48.7470   61.2180   31.1050 O.2   208  TYR208     -0.2864
    122  CB        48.8520   61.4590   34.2120 C.3   208  TYR208      0.0560
    123  CG        48.9140   61.1660   35.6930 C.ar  208  TYR208     -0.0198
    124  CD1       47.8070   61.4000   36.5100 C.ar  208  TYR208     -0.0009
    125  CD2       50.0790   60.6580   36.2850 C.ar  208  TYR208     -0.0009
    126  CE1       47.8490   61.1360   37.8760 C.ar  208  TYR208      0.0417
    127  CE2       50.1310   60.3870   37.6600 C.ar  208  TYR208      0.0417
    128  CZ        49.0060   60.6300   38.4460 C.ar  208  TYR208      0.1957
    129  OH        49.0210   60.3610   39.7930 O.3   208  TYR208     -0.2866
    130  N         44.8450   61.9750   39.6790 N.3   215  ASP215     -0.1225
    131  CA        44.7780   60.6540   40.2940 C.3   215  ASP215      0.1805
    132  C         43.3570   60.4480   40.8130 C.2   215  ASP215      0.2598
    133  O         42.9980   60.9310   41.8990 O.2   215  ASP215     -0.2718
    134  CB        45.7380   60.5370   41.4660 C.3   215  ASP215      0.1424
    135  CG        45.9810   59.1030   41.8550 C.2   215  ASP215      0.3668
    136  OD1       47.0140   58.5610   41.4220 O.co2 215  ASP215     -0.2456
    137  OD2       45.1430   58.5070   42.5670 O.co2 215  ASP215     -0.2456
    138  N         42.5590   59.7180   40.0390 N.am  216  PHE216     -0.1962
    139  CA        41.1760   59.4710   40.3970 C.3   216  PHE216      0.1771
    140  C         40.9780   59.0220   41.8340 C.2   216  PHE216      0.2620
    141  O         40.2480   59.6580   42.5840 O.2   216  PHE216     -0.2715
    142  CB        40.5370   58.4360   39.4670 C.3   216  PHE216      0.0574
    143  CG        39.0400   58.3610   39.6050 C.ar  216  PHE216     -0.0200
    144  CD1       38.4510   57.7260   40.6930 C.ar  216  PHE216     -0.0042
    145  CD2       38.2180   58.9930   38.6800 C.ar  216  PHE216     -0.0042
    146  CE1       37.0620   57.7270   40.8530 C.ar  216  PHE216     -0.0003
    147  CE2       36.8330   58.9990   38.8300 C.ar  216  PHE216     -0.0003
    148  CZ        36.2570   58.3690   39.9160 C.ar  216  PHE216     -0.0000
    149  N         41.6180   57.9210   42.2110 N.am  217  GLY217     -0.1940
    150  CA        41.4600   57.4090   43.5600 C.3   217  GLY217      0.2014
    151  C         41.8670   58.4130   44.6050 C.2   217  GLY217      0.2638
    152  O         41.1190   58.7150   45.5400 O.2   217  GLY217     -0.2714
    153  N         43.0790   58.9180   44.4290 N.am  218  ASP218     -0.1971
    154  CA        43.6570   59.9000   45.3250 C.3   218  ASP218      0.1709
    155  C         42.5930   60.9360   45.6740 C.2   218  ASP218      0.2293
    156  O         42.3870   61.2620   46.8450 O.2   218  ASP218     -0.2864
    157  CB        44.8690   60.5470   44.6350 C.3   218  ASP218      0.1436
    158  CG        46.1150   60.4910   45.4920 C.2   218  ASP218      0.3671
    159  OD1       47.2390   60.6720   44.9630 O.co2 218  ASP218     -0.2456
    160  OD2       45.9570   60.2650   46.7140 O.co2 218  ASP218     -0.2456
@<TRIPOS>BOND
     1    80    79    2
     2    75    74    2
     3    88    85    1
     4    71    70    1
     5    79    78    1
     6    79    84   am
     7    78    81    1
     8    78    77    1
     9    69    68    2
    10    74    77   am
    11    74    73    1
    12    81    83    1
    13    81    82    1
    14    70    67    1
    15    84    85    1
    16    85    86    1
    17    68    67    1
    18    68    72   am
    19    87    86    2
    20    73    72    1
    21    73    76    1
    22    86    89   am
    23   121   120    2
    24   115   113   ar
    25   115   116   ar
    26    67    66    1
    27   104   103    1
    28   113   111   ar
    29    89    90    1
    30   117   116    1
    31   120   119    1
    32    66    60   am
    33   116   114   ar
    34    90    91    1
    35   105   103    1
    36   107   106    1
    37   107   108    1
    38   107   110    1
    39   103   100    1
    40   101   102    2
    41   101   100    1
    42   111   110    1
    43   111   112   ar
    44   118   108   am
    45   118   119    1
    46   108   109    2
    47   119   122    1
    48    60    61    2
    49    60    59    1
    50    91    92    2
    51    91    93   am
    52   114   112   ar
    53   100    99    1
    54    99    95   am
    55    54    53    2
    56   122   123    1
    57    42    40    1
    58    59    62    1
    59    59    58    1
    60    93    94    1
    61    63    62    1
    62    63    64    1
    63    46    45    2
    64    95    94    1
    65    95    96    2
    66    53    58   am
    67    53    52    1
    68    40    39    2
    69    40    41    1
    70    94    97    1
    71    39    38    1
    72    64    65    1
    73    49    48   ar
    74   123   125   ar
    75   123   124   ar
    76    45    51   am
    77    45    44    1
    78    52    51    1
    79    52    55    1
    80    47    48    1
    81    47    44    1
    82   125   127   ar
    83    97    98    1
    84    48    50   ar
    85   124   126   ar
    86    38    37    1
    87    43    44    1
    88    51    57    1
    89     8     6    1
    90    55    56    1
    91   127   128   ar
    92    37    36    1
    93   126   128   ar
    94    57    56    1
    95   128   129    1
    96     6     5    1
    97   145   147   ar
    98   145   143   ar
    99   147   148   ar
   100    36    33    1
   101    33    32    1
   102    33    34    1
   103   142   143    1
   104   142   139    1
   105   143   144   ar
   106     5     7    1
   107     5     2    1
   108   130   131    1
   109   148   146   ar
   110   138   139    1
   111   138   132   am
   112   131   132    1
   113   131   134    1
   114    34    35    2
   115   139   140    1
   116     1     2    1
   117   144   146   ar
   118    31    28    1
   119   132   133    2
   120     2     3    1
   121   136   135   ar
   122    30    29    2
   123   134   135    1
   124    29    28    1
   125   140   149   am
   126   140   141    2
   127   135   137   ar
   128    28    27    1
   129     4     3    2
   130     3     9   am
   131   149   150    1
   132    27    18   am
   133     9    10    1
   134   150   151    1
   135    12    11    2
   136    18    19    2
   137    18    17    1
   138   153   151   am
   139   153   154    1
   140    11    10    1
   141    11    16   am
   142    10    13    1
   143   151   152    2
   144   157   154    1
   145   157   158    1
   146   159   158   ar
   147    16    17    1
   148    17    20    1
   149   154   155    1
   150    20    21    1
   151    13    15    1
   152    13    14    1
   153   158   160   ar
   154   155   156    2
   155    26    24    1
   156    23    24    2
   157    23    22    1
   158    21    22    1
   159    24    25    1
