@<TRIPOS>MOLECULE
tmp/1jltB01.pdb
 108 106 0 0 0
SMALL
GASTEIGER

@<TRIPOS>ATOM
      1  N          6.4160   18.6370   43.4340 N.3     2  LEU2       -0.1245
      2  CA         5.3230   18.0590   42.6740 C.3     2  LEU2        0.1561
      3  C          4.2510   17.4180   43.5300 C.2     2  LEU2        0.2260
      4  O          3.1060   17.3270   43.1070 O.2     2  LEU2       -0.2867
      5  CB         5.8390   17.0840   41.6130 C.3     2  LEU2        0.0270
      6  CG         6.5470   17.8260   40.4780 C.3     2  LEU2        0.0019
      7  CD1        6.9520   16.8030   39.4820 C.3     2  LEU2        0.0001
      8  CD2        5.6460   18.8610   39.7980 C.3     2  LEU2        0.0001
      9  N          2.0230   20.2630   44.1130 N.3     5  PHE5       -0.1241
     10  CA         1.3230   20.6410   42.8880 C.3     5  PHE5        0.1605
     11  C          0.1980   19.6210   42.6380 C.2     5  PHE5        0.2264
     12  O         -0.9150   20.0000   42.2520 O.2     5  PHE5       -0.2867
     13  CB         2.3450   20.7020   41.7380 C.3     5  PHE5        0.0534
     14  CG         1.7960   21.1860   40.4310 C.ar    5  PHE5       -0.0203
     15  CD1        0.7390   22.0830   40.3590 C.ar    5  PHE5       -0.0042
     16  CD2        2.3990   20.7710   39.2650 C.ar    5  PHE5       -0.0042
     17  CE1        0.2890   22.5570   39.1110 C.ar    5  PHE5       -0.0003
     18  CE2        1.9630   21.2210   38.0230 C.ar    5  PHE5       -0.0003
     19  CZ         0.9030   22.1220   37.9470 C.ar    5  PHE5       -0.0000
     20  N         -3.7900   20.2930   42.2250 N.3     9  ILE9       -0.1245
     21  CA        -4.5880   19.8030   41.1100 C.3     9  ILE9        0.1561
     22  C         -5.7720   18.9690   41.5850 C.2     9  ILE9        0.2260
     23  O         -6.9160   19.2160   41.1800 O.2     9  ILE9       -0.2867
     24  CB        -3.7060   18.9910   40.1480 C.3     9  ILE9        0.0252
     25  CG1       -2.6700   19.9210   39.5110 C.3     9  ILE9        0.0019
     26  CG2       -4.5590   18.3510   39.0660 C.3     9  ILE9        0.0019
     27  CD1       -1.5760   19.1710   38.7730 C.3     9  ILE9        0.0001
     28  N         -2.4330   14.3200   33.8990 N.3    21  TYR21      -0.1241
     29  CA        -1.3850   15.2160   33.4040 C.3    21  TYR21       0.1605
     30  C          0.0140   14.6120   33.3810 C.2    21  TYR21       0.2264
     31  O          1.0050   15.3300   33.2200 O.2    21  TYR21      -0.2867
     32  CB        -1.3810   16.5020   34.2380 C.3    21  TYR21       0.0534
     33  CG        -2.7240   17.1910   34.2130 C.ar   21  TYR21      -0.0201
     34  CD1       -3.0770   18.0400   33.1600 C.ar   21  TYR21      -0.0009
     35  CD2       -3.6900   16.8970   35.1710 C.ar   21  TYR21      -0.0009
     36  CE1       -4.3690   18.5700   33.0570 C.ar   21  TYR21       0.0417
     37  CE2       -4.9870   17.4230   35.0750 C.ar   21  TYR21       0.0417
     38  CZ        -5.3110   18.2540   34.0130 C.ar   21  TYR21       0.1957
     39  OH        -6.5940   18.7490   33.9470 O.3    21  TYR21      -0.2866
     40  N          3.5960   19.4170   26.2450 N.3    27  TYR27      -0.1227
     41  CA         4.2260   19.9340   27.4500 C.3    27  TYR27       0.1736
     42  C          3.7360   19.4220   28.7900 C.2    27  TYR27       0.2596
     43  O          4.4500   19.5610   29.7760 O.2    27  TYR27      -0.2718
     44  CB         4.1440   21.4640   27.4620 C.3    27  TYR27       0.0548
     45  CG         5.0590   22.0860   26.4530 C.ar   27  TYR27      -0.0200
     46  CD1        4.6430   22.2970   25.1410 C.ar   27  TYR27      -0.0009
     47  CD2        6.3920   22.3380   26.7760 C.ar   27  TYR27      -0.0009
     48  CE1        5.5350   22.7240   24.1670 C.ar   27  TYR27       0.0417
     49  CE2        7.2990   22.7620   25.8120 C.ar   27  TYR27       0.0417
     50  CZ         6.8690   22.9510   24.5020 C.ar   27  TYR27       0.1957
     51  OH         7.7760   23.3520   23.5360 O.3    27  TYR27      -0.2866
     52  N          2.5330   18.8670   28.8740 N.am   28  CYS28      -0.1956
     53  CA         2.0750   18.3870   30.1690 C.3    28  CYS28       0.1843
     54  C          2.7620   17.0780   30.4850 C.2    28  CYS28       0.2626
     55  O          2.6570   16.0940   29.7360 O.2    28  CYS28      -0.2714
     56  CB         0.5560   18.1820   30.2000 C.3    28  CYS28       0.0997
     57  SG        -0.3720   19.7050   29.9870 S.3    28  CYS28      -0.0797
     58  N          3.4770   17.0730   31.5970 N.am   29  GLY29      -0.1954
     59  CA         4.1780   15.8660   31.9940 C.3    29  GLY29       0.1869
     60  C          5.4280   15.6060   31.1730 C.2    29  GLY29       0.2309
     61  O          6.2300   16.5170   30.9220 O.2    29  GLY29      -0.2863
     62  N          0.5820   24.0400   30.7600 N.3    44  CYS44      -0.1235
     63  CA         1.8100   23.3280   31.0840 C.3    44  CYS44       0.1677
     64  C          3.0530   24.0390   30.5720 C.2    44  CYS44       0.2270
     65  O          4.0670   24.1390   31.2640 O.2    44  CYS44      -0.2867
     66  CB         1.7270   21.9090   30.5330 C.3    44  CYS44       0.0956
     67  SG         0.4540   21.0230   31.4320 S.3    44  CYS44      -0.0801
     68  N          3.7320   26.8620   32.7620 N.3    47  HIS47      -0.1226
     69  CA         4.2450   26.3640   34.0330 C.3    47  HIS47       0.1752
     70  C          5.7410   26.0330   33.8970 C.2    47  HIS47       0.2596
     71  O          6.5200   26.3530   34.8000 O.2    47  HIS47      -0.2718
     72  CB         3.4450   25.1290   34.4410 C.3    47  HIS47       0.0759
     73  CG         3.8090   24.5770   35.7870 C.ar   47  HIS47       0.0818
     74  ND1        4.5400   23.4200   35.9330 N.ar   47  HIS47      -0.2268
     75  CD2        3.5270   25.0100   37.0350 C.ar   47  HIS47       0.1154
     76  CE1        4.6930   23.1610   37.2220 C.ar   47  HIS47       0.1986
     77  NE2        4.0800   24.1140   37.9160 N.ar   47  HIS47      -0.2212
     78  N          6.1350   25.4070   32.7830 N.am   48  ASP48      -0.1974
     79  CA         7.5490   25.0720   32.5550 C.3    48  ASP48       0.1709
     80  C          8.3650   26.3520   32.4870 C.2    48  ASP48       0.2293
     81  O          9.4360   26.4500   33.0970 O.2    48  ASP48      -0.2864
     82  CB         7.7480   24.2890   31.2480 C.3    48  ASP48       0.1436
     83  CG         7.1630   22.8810   31.2890 C.2    48  ASP48       0.3671
     84  OD1        7.0280   22.3150   32.3870 O.co2  48  ASP48      -0.2456
     85  OD2        6.8650   22.3310   30.2050 O.co2  48  ASP48      -0.2456
     86  N          8.7750   27.7610   36.0230 N.3    51  TYR51      -0.1241
     87  CA         9.8050   27.0490   36.7920 C.3    51  TYR51       0.1605
     88  C         11.2000   27.4430   36.3010 C.2    51  TYR51       0.2264
     89  O         12.1440   27.5390   37.0870 O.2    51  TYR51      -0.2867
     90  CB         9.6610   25.5390   36.6160 C.3    51  TYR51       0.0534
     91  CG         8.7600   24.8290   37.6060 C.ar   51  TYR51      -0.0201
     92  CD1        7.8960   25.5270   38.4570 C.ar   51  TYR51      -0.0009
     93  CD2        8.7660   23.4390   37.6750 C.ar   51  TYR51      -0.0009
     94  CE1        7.0750   24.8480   39.3500 C.ar   51  TYR51       0.0417
     95  CE2        7.9540   22.7580   38.5430 C.ar   51  TYR51       0.0417
     96  CZ         7.1020   23.4580   39.3860 C.ar   51  TYR51       0.1957
     97  OH         6.2650   22.7540   40.2030 O.3    51  TYR51      -0.2866
     98  N         -5.5310   24.6140   34.7560 N.3    96  PHE96      -0.1241
     99  CA        -6.0690   23.2980   34.4230 C.3    96  PHE96       0.1605
    100  C         -7.5640   23.2910   34.7130 C.2    96  PHE96       0.2264
    101  O         -8.3340   22.7090   33.9660 O.2    96  PHE96      -0.2867
    102  CB        -5.4430   22.1730   35.2510 C.3    96  PHE96       0.0534
    103  CG        -3.9930   21.8880   34.9420 C.ar   96  PHE96      -0.0203
    104  CD1       -3.3780   22.3520   33.7850 C.ar   96  PHE96      -0.0042
    105  CD2       -3.2410   21.1460   35.8440 C.ar   96  PHE96      -0.0042
    106  CE1       -2.0290   22.0790   33.5370 C.ar   96  PHE96      -0.0003
    107  CE2       -1.8990   20.8680   35.5990 C.ar   96  PHE96      -0.0003
    108  CZ        -1.2940   21.3410   34.4430 C.ar   96  PHE96      -0.0000
@<TRIPOS>BOND
     1    51    50    1
     2    48    50   ar
     3    48    46   ar
     4    50    49   ar
     5    46    45   ar
     6    49    47   ar
     7    40    41    1
     8    45    47   ar
     9    45    44    1
    10    41    44    1
    11    41    42    1
    12    42    52   am
    13    42    43    2
    14    52    53    1
    15    55    54    2
    16    57    56    1
    17    57    67    1
    18    53    56    1
    19    53    54    1
    20    85    83   ar
    21    54    58   am
    22    66    63    1
    23    66    67    1
    24    64    63    1
    25    64    65    2
    26    62    63    1
    27    61    60    2
    28    60    59    1
    29    82    83    1
    30    82    79    1
    31    83    84   ar
    32    58    59    1
    33    80    79    1
    34    80    81    2
    35    79    78    1
    36    68    69    1
    37    78    70   am
    38    36    34   ar
    39    36    38   ar
    40    34    33   ar
    41    31    30    2
    42    30    29    1
    43    29    28    1
    44    29    32    1
    45   106   104   ar
    46   106   108   ar
    47   104   103   ar
    48    70    69    1
    49    70    71    2
    50    39    38    1
    51   101   100    2
    52    38    37   ar
    53    69    72    1
    54    33    32    1
    55    33    35   ar
    56    99   100    1
    57    99    98    1
    58    99   102    1
    59    72    73    1
    60   108   107   ar
    61   103   102    1
    62   103   105   ar
    63    37    35   ar
    64   107   105   ar
    65    73    74   ar
    66    73    75   ar
    67    74    76   ar
    68    86    87    1
    69    88    87    1
    70    88    89    2
    71    90    87    1
    72    90    91    1
    73    75    77   ar
    74    76    77   ar
    75    91    93   ar
    76    91    92   ar
    77    93    95   ar
    78    19    18   ar
    79    19    17   ar
    80    18    16   ar
    81    92    94   ar
    82    95    96   ar
    83    27    25    1
    84    26    24    1
    85    17    15   ar
    86    16    14   ar
    87    94    96   ar
    88    96    97    1
    89     7     6    1
    90    25    24    1
    91     8     6    1
    92    24    21    1
    93    15    14   ar
    94    14    13    1
    95     6     5    1
    96    21    22    1
    97    21    20    1
    98    23    22    2
    99     5     2    1
   100    13    10    1
   101    12    11    2
   102    11    10    1
   103     2     1    1
   104     2     3    1
   105    10     9    1
   106     4     3    2
