@<TRIPOS>MOLECULE
tmp/1jltA00.pdb
 101 101 0 0 0
SMALL
GASTEIGER

@<TRIPOS>ATOM
      1  N         11.9020   15.7630   28.4950 N.3     2  LEU2       -0.1245
      2  CA        11.4140   14.4820   28.9930 C.3     2  LEU2        0.1561
      3  C         11.0780   13.4590   27.9300 C.2     2  LEU2        0.2260
      4  O         11.0870   12.2670   28.2190 O.2     2  LEU2       -0.2867
      5  CB        10.2580   14.7020   29.9810 C.3     2  LEU2        0.0270
      6  CG        10.7320   15.3460   31.2930 C.3     2  LEU2        0.0019
      7  CD1        9.5700   15.4500   32.2620 C.3     2  LEU2        0.0001
      8  CD2       11.8450   14.4880   31.9000 C.3     2  LEU2        0.0001
      9  N         14.4690   11.9280   27.7030 N.3     5  PHE5       -0.1241
     10  CA        14.8140   11.1070   28.8560 C.3     5  PHE5        0.1605
     11  C         13.9850    9.8090   28.7530 C.2     5  PHE5        0.2264
     12  O         14.4900    8.7340   29.0450 O.2     5  PHE5       -0.2867
     13  CB        14.5150   11.8880   30.1370 C.3     5  PHE5        0.0534
     14  CG        14.8330   11.1390   31.3980 C.ar    5  PHE5       -0.0203
     15  CD1       15.9910   10.3710   31.5140 C.ar    5  PHE5       -0.0042
     16  CD2       13.9650   11.2050   32.4740 C.ar    5  PHE5       -0.0042
     17  CE1       16.2670    9.6810   32.7050 C.ar    5  PHE5       -0.0003
     18  CE2       14.2220   10.5400   33.6450 C.ar    5  PHE5       -0.0003
     19  CZ        15.3740    9.7620   33.7700 C.ar    5  PHE5       -0.0000
     20  N          7.9760    4.6430   35.3920 N.3    21  TYR21      -0.1227
     21  CA         8.7210    5.5820   36.2210 C.3    21  TYR21       0.1736
     22  C          8.0100    6.8890   36.4900 C.2    21  TYR21       0.2595
     23  O          8.1420    7.4510   37.5850 O.2    21  TYR21      -0.2718
     24  CB        10.0830    5.8600   35.5850 C.3    21  TYR21       0.0548
     25  CG        10.9130    4.6090   35.4860 C.ar   21  TYR21      -0.0200
     26  CD1       11.4790    4.0400   36.6250 C.ar   21  TYR21      -0.0009
     27  CD2       11.0750    3.9520   34.2640 C.ar   21  TYR21      -0.0009
     28  CE1       12.1870    2.8430   36.5680 C.ar   21  TYR21       0.0417
     29  CE2       11.7840    2.7670   34.1800 C.ar   21  TYR21       0.0417
     30  CZ        12.3380    2.2180   35.3380 C.ar   21  TYR21       0.1957
     31  OH        13.0590    1.0440   35.2550 O.3    21  TYR21      -0.2866
     32  N          7.2400    7.3630   35.5110 N.am   22  ALA22      -0.1980
     33  CA         6.5400    8.6420   35.6560 C.3    22  ALA22       0.1597
     34  C          5.5810    8.7120   36.8330 C.2    22  ALA22       0.2287
     35  O          5.2090    9.8100   37.2780 O.2    22  ALA22      -0.2864
     36  CB         5.8060    9.0100   34.3550 C.3    22  ALA22       0.0319
     37  N         10.0730    9.9380   44.2710 N.3    27  TYR27      -0.1227
     38  CA        10.8970   10.8440   43.4810 C.3    27  TYR27       0.1736
     39  C         10.8410   10.6590   41.9790 C.2    27  TYR27       0.2596
     40  O         11.0670   11.6260   41.2370 O.2    27  TYR27      -0.2718
     41  CB        12.3670   10.8190   43.9510 C.3    27  TYR27       0.0548
     42  CG        12.4900   11.4270   45.3230 C.ar   27  TYR27      -0.0200
     43  CD1       12.6670   12.8060   45.4720 C.ar   27  TYR27      -0.0009
     44  CD2       12.3120   10.6470   46.4690 C.ar   27  TYR27      -0.0009
     45  CE1       12.6590   13.3980   46.7370 C.ar   27  TYR27       0.0417
     46  CE2       12.2940   11.2230   47.7300 C.ar   27  TYR27       0.0417
     47  CZ        12.4660   12.5950   47.8590 C.ar   27  TYR27       0.1957
     48  OH        12.4180   13.1810   49.1080 O.3    27  TYR27      -0.2866
     49  N         10.5540    9.4510   41.4940 N.am   28  CYS28      -0.1956
     50  CA        10.4600    9.3290   40.0450 C.3    28  CYS28       0.1843
     51  C          9.1670    9.9740   39.5580 C.2    28  CYS28       0.2626
     52  O          9.1430   10.5160   38.4750 O.2    28  CYS28      -0.2714
     53  CB        10.5010    7.8590   39.6050 C.3    28  CYS28       0.0997
     54  SG        12.0380    7.0380   39.9850 S.3    28  CYS28      -0.0797
     55  N          8.1090    9.8990   40.3630 N.am   29  GLY29      -0.1940
     56  CA         6.8220   10.4710   40.0110 C.3    29  GLY29       0.2014
     57  C          6.5910   11.8480   40.5970 C.2    29  GLY29       0.2638
     58  O          7.5380   12.5970   40.8080 O.2    29  GLY29      -0.2714
     59  N          5.3270   12.1810   40.8610 N.am   30  TRP30      -0.1973
     60  CA         4.9790   13.4980   41.3950 C.3    30  TRP30       0.1640
     61  C          5.1570   13.5480   42.9060 C.2    30  TRP30       0.2290
     62  O          4.1850   13.5200   43.6820 O.2    30  TRP30      -0.2864
     63  CB         3.5410   13.8510   41.0250 C.3    30  TRP30       0.0576
     64  CG         3.3910   14.2340   39.5920 C.ar   30  TRP30       0.0006
     65  CD1        3.7950   13.5220   38.4980 C.ar   30  TRP30       0.0946
     66  CD2        2.7590   15.4100   39.0950 C.ar   30  TRP30       0.0152
     67  NE1        3.4350   14.1840   37.3430 N.ar   30  TRP30      -0.2442
     68  CE2        2.7880   15.3490   37.6860 C.ar   30  TRP30       0.0810
     69  CE3        2.1450   16.5100   39.7040 C.ar   30  TRP30       0.0012
     70  CZ2        2.2410   16.3440   36.8750 C.ar   30  TRP30       0.0191
     71  CZ3        1.6010   17.4990   38.9010 C.ar   30  TRP30       0.0001
     72  CH2        1.6520   17.4100   37.5090 C.ar   30  TRP30       0.0015
     73  N         18.8750   12.4010   40.2910 N.3    47  GLN47      -0.1231
     74  CA        18.6620   13.1940   39.0840 C.3    47  GLN47       0.1698
     75  C         18.1290   14.5620   39.4720 C.2    47  GLN47       0.2592
     76  O         18.5330   15.5600   38.8800 O.2    47  GLN47      -0.2718
     77  CB        17.6610   12.5040   38.1680 C.3    47  GLN47       0.0381
     78  CG        17.4510   13.2610   36.8720 C.3    47  GLN47       0.0905
     79  CD        16.4300   12.5900   35.9820 C.2    47  GLN47       0.2608
     80  OE1       15.5090   11.9360   36.4710 O.2    47  GLN47      -0.2717
     81  NE2       16.5820   12.7480   34.6780 N.am   47  GLN47      -0.0878
     82  N         17.2290   14.6170   40.4580 N.am   48  ASP48      -0.1974
     83  CA        16.6860   15.9000   40.9100 C.3    48  ASP48       0.1709
     84  C         17.8360   16.7950   41.4030 C.2    48  ASP48       0.2293
     85  O         17.8550   18.0090   41.1700 O.2    48  ASP48      -0.2864
     86  CB        15.6980   15.7080   42.0770 C.3    48  ASP48       0.1436
     87  CG        14.4300   14.9630   41.6930 C.2    48  ASP48       0.3671
     88  OD1       14.0100   15.0610   40.5400 O.co2  48  ASP48      -0.2456
     89  OD2       13.8290   14.3100   42.5690 O.co2  48  ASP48      -0.2456
     90  N         19.7490   18.0570   38.3770 N.3    51  TYR51      -0.1241
     91  CA        18.9830   19.1350   37.7590 C.3    51  TYR51       0.1605
     92  C         19.0670   20.4200   38.5800 C.2    51  TYR51       0.2264
     93  O         18.9960   21.5270   38.0270 O.2    51  TYR51      -0.2867
     94  CB        17.5090   18.7690   37.6800 C.3    51  TYR51       0.0534
     95  CG        17.0950   17.8020   36.5940 C.ar   51  TYR51      -0.0201
     96  CD1       17.9880   17.3500   35.6220 C.ar   51  TYR51      -0.0009
     97  CD2       15.7680   17.4340   36.4820 C.ar   51  TYR51      -0.0009
     98  CE1       17.5450   16.5590   34.5500 C.ar   51  TYR51       0.0417
     99  CE2       15.3150   16.6710   35.4300 C.ar   51  TYR51       0.0417
    100  CZ        16.2010   16.2390   34.4670 C.ar   51  TYR51       0.1957
    101  OH        15.6870   15.5190   33.4050 O.3    51  TYR51      -0.2866
@<TRIPOS>BOND
     1     9    10    1
     2     3     4    2
     3     3     2    1
     4     1     2    1
     5    11    10    1
     6    11    12    2
     7    10    13    1
     8     2     5    1
     9     5     6    1
    10    13    14    1
    11     6     8    1
    12     6     7    1
    13    14    15   ar
    14    14    16   ar
    15    15    17   ar
    16    16    18   ar
    17    17    19   ar
    18   101   100    1
    19    18    19   ar
    20    29    27   ar
    21    29    30   ar
    22    27    25   ar
    23    36    33    1
    24   100    98   ar
    25   100    99   ar
    26    98    96   ar
    27    81    79   am
    28    31    30    1
    29    30    28   ar
    30    20    21    1
    31    99    97   ar
    32    25    24    1
    33    25    26   ar
    34    32    33    1
    35    32    22   am
    36    24    21    1
    37    96    95   ar
    38    33    34    1
    39    79    80    2
    40    79    78    1
    41    21    22    1
    42    97    95   ar
    43    22    23    2
    44    28    26   ar
    45    95    94    1
    46    34    35    2
    47    78    77    1
    48    70    72   ar
    49    70    68   ar
    50    67    68   ar
    51    67    65   ar
    52    72    71   ar
    53    94    91    1
    54    68    66   ar
    55    91    90    1
    56    91    92    1
    57    93    92    2
    58    77    74    1
    59    52    51    2
    60    65    64   ar
    61    76    75    2
    62    71    69   ar
    63    74    75    1
    64    74    73    1
    65    66    64   ar
    66    66    69   ar
    67    75    82   am
    68    51    50    1
    69    51    55   am
    70    64    63    1
    71    53    54    1
    72    53    50    1
    73    56    55    1
    74    56    57    1
    75    50    49    1
    76    82    83    1
    77    88    87   ar
    78    57    58    2
    79    57    59   am
    80    59    60    1
    81    83    84    1
    82    83    86    1
    83    63    60    1
    84    85    84    2
    85    40    39    2
    86    60    61    1
    87    49    39   am
    88    87    86    1
    89    87    89   ar
    90    39    38    1
    91    61    62    2
    92    38    41    1
    93    38    37    1
    94    41    42    1
    95    42    43   ar
    96    42    44   ar
    97    43    45   ar
    98    44    46   ar
    99    45    47   ar
   100    46    47   ar
   101    47    48    1
