@<TRIPOS>MOLECULE
tmp/1jlvB00.pdb
 137 133 0 0 0
SMALL
GASTEIGER

@<TRIPOS>ATOM
      1  N         54.7870   38.2290    3.2280 N.3     6  LEU6       -0.1245
      2  CA        53.6770   37.8010    4.0550 C.3     6  LEU6        0.1561
      3  C         54.3370   37.7490    5.4340 C.2     6  LEU6        0.2260
      4  O         55.3620   37.0940    5.6140 O.2     6  LEU6       -0.2867
      5  CB        53.1850   36.4210    3.6260 C.3     6  LEU6        0.0270
      6  CG        51.6670   36.2610    3.6970 C.3     6  LEU6        0.0019
      7  CD1       50.9970   37.3760    2.9010 C.3     6  LEU6        0.0001
      8  CD2       51.2660   34.8970    3.1590 C.3     6  LEU6        0.0001
      9  N         55.4730   34.2670    6.9850 N.3     9  SER9       -0.1217
     10  CA        56.4570   33.4770    6.2390 C.3     9  SER9        0.1889
     11  C         57.8820   33.5380    6.8110 C.2     9  SER9        0.2288
     12  O         58.4280   34.6220    7.0350 O.2     9  SER9       -0.2866
     13  CB        56.4790   33.9400    4.7790 C.3     9  SER9        0.2089
     14  OG        57.5850   33.3840    4.0820 O.3     9  SER9       -0.2183
     15  N         60.9010   32.5820    5.3870 N.3    11  PRO11      -0.2116
     16  CA        61.8630   33.2300    4.4910 C.3    11  PRO11       0.1372
     17  C         61.6680   34.7510    4.4670 C.2    11  PRO11       0.2244
     18  O         62.6230   35.5070    4.2850 O.2    11  PRO11      -0.2868
     19  CB        61.5890   32.5590    3.1430 C.3    11  PRO11       0.0268
     20  CG        60.1700   32.0640    3.2650 C.3    11  PRO11       0.0207
     21  CD        60.1150   31.5600    4.6750 C.3    11  PRO11       0.0892
     22  N         48.6500   35.6690   -1.3990 N.3    33  LEU33      -0.1245
     23  CA        48.6590   34.5770   -2.3670 C.3    33  LEU33       0.1561
     24  C         47.2680   33.9870   -2.5770 C.2    33  LEU33       0.2260
     25  O         46.9680   33.4580   -3.6470 O.2    33  LEU33      -0.2867
     26  CB        49.6060   33.4690   -1.9020 C.3    33  LEU33       0.0270
     27  CG        51.0510   33.8610   -1.5910 C.3    33  LEU33       0.0019
     28  CD1       51.8170   32.6330   -1.1430 C.3    33  LEU33       0.0001
     29  CD2       51.7010   34.4800   -2.8180 C.3    33  LEU33       0.0001
     30  N         50.4080   37.2400   -6.3980 N.3    38  HIS38      -0.1241
     31  CA        51.7430   36.8870   -6.8790 C.3    38  HIS38       0.1621
     32  C         51.6620   36.4680   -8.3500 C.2    38  HIS38       0.2264
     33  O         52.6840   36.3330   -9.0290 O.2    38  HIS38      -0.2867
     34  CB        52.3230   35.7390   -6.0500 C.3    38  HIS38       0.0745
     35  CG        51.5100   34.4840   -6.1150 C.ar   38  HIS38       0.0817
     36  ND1       50.1790   34.4460   -5.7630 N.ar   38  HIS38      -0.2268
     37  CD2       51.8320   33.2280   -6.5060 C.ar   38  HIS38       0.1154
     38  CE1       49.7130   33.2210   -5.9380 C.ar   38  HIS38       0.1986
     39  NE2       50.6970   32.4630   -6.3880 N.ar   38  HIS38      -0.2212
     40  N         59.2030   33.4720  -11.2660 N.3    49  GLN49      -0.1231
     41  CA        58.9340   32.3080  -10.4220 C.3    49  GLN49       0.1698
     42  C         57.7550   32.6020   -9.4860 C.2    49  GLN49       0.2592
     43  O         57.3080   31.7320   -8.7410 O.2    49  GLN49      -0.2718
     44  CB        60.1920   31.9220   -9.6210 C.3    49  GLN49       0.0381
     45  CG        60.0950   30.5620   -8.9180 C.3    49  GLN49       0.0905
     46  CD        61.4470   29.9990   -8.4810 C.2    49  GLN49       0.2608
     47  OE1       61.5210   28.8780   -7.9820 O.2    49  GLN49      -0.2717
     48  NE2       62.5150   30.7700   -8.6710 N.am   49  GLN49      -0.0878
     49  N         57.2490   33.8320   -9.5490 N.am   50  HIS50      -0.1962
     50  CA        56.1090   34.2720   -8.7350 C.3    50  HIS50       0.1787
     51  C         56.0800   33.7470   -7.3020 C.2    50  HIS50       0.2620
     52  O         55.1300   33.0850   -6.8910 O.2    50  HIS50      -0.2715
     53  CB        54.7830   33.9260   -9.4430 C.3    50  HIS50       0.0785
     54  CG        54.6330   32.4800   -9.8120 C.ar   50  HIS50       0.0821
     55  ND1       54.4530   31.4810   -8.8780 N.ar   50  HIS50      -0.2267
     56  CD2       54.5930   31.8700  -11.0230 C.ar   50  HIS50       0.1154
     57  CE1       54.3030   30.3230   -9.4950 C.ar   50  HIS50       0.1986
     58  NE2       54.3830   30.5300  -10.7970 N.ar   50  HIS50      -0.2212
     59  N         57.1190   34.0600   -6.5390 N.am   51  CYS51      -0.1954
     60  CA        57.2090   33.6190   -5.1530 C.3    51  CYS51       0.1843
     61  C         57.6910   34.7500   -4.2580 C.2    51  CYS51       0.2625
     62  O         58.3310   35.6970   -4.7240 O.2    51  CYS51      -0.2714
     63  CB        58.1800   32.4340   -5.0350 C.3    51  CYS51       0.0997
     64  SG        59.8730   32.7980   -5.5930 S.3    51  CYS51      -0.0797
     65  N         57.3680   34.6490   -2.9740 N.am   52  ILE52      -0.1964
     66  CA        57.8010   35.6420   -2.0010 C.3    52  ILE52       0.1712
     67  C         58.7080   34.9260   -1.0100 C.2    52  ILE52       0.2458
     68  O         58.5770   33.7230   -0.7990 O.2    52  ILE52      -0.2730
     69  CB        56.6110   36.2850   -1.2380 C.3    52  ILE52       0.0289
     70  CG1       55.7990   35.2160   -0.5030 C.3    52  ILE52       0.0022
     71  CG2       55.7380   37.0720   -2.2110 C.3    52  ILE52       0.0023
     72  CD1       54.6820   35.8020    0.3550 C.3    52  ILE52       0.0001
     73  N         59.6460   35.6560   -0.3890 N.am   53  PRO53      -0.2727
     74  CA        59.8760   37.0890   -0.5740 C.3    53  PRO53       0.1402
     75  C         60.5430   37.4640   -1.8900 C.2    53  PRO53       0.2269
     76  O         61.2880   36.6780   -2.4800 O.2    53  PRO53      -0.2865
     77  CB        60.7630   37.4380    0.6150 C.3    53  PRO53       0.0296
     78  CG        61.6360   36.2300    0.7080 C.3    53  PRO53       0.0237
     79  CD        60.6260   35.0940    0.5580 C.3    53  PRO53       0.0939
     80  N         64.4890   34.6000   -3.4620 N.3    64  GLU64      -0.1231
     81  CA        65.1750   33.5480   -2.7040 C.3    64  GLU64       0.1699
     82  C         65.6670   34.2760   -1.4520 C.2    64  GLU64       0.2593
     83  O         66.6580   35.0110   -1.4830 O.2    64  GLU64      -0.2718
     84  CB        66.3580   32.9310   -3.4570 C.3    64  GLU64       0.0402
     85  CG        65.9940   31.7650   -4.3810 C.3    64  GLU64       0.1161
     86  CD        65.2550   30.6200   -3.6920 C.2    64  GLU64       0.3649
     87  OE1       65.4490   30.3790   -2.4750 O.co2  64  GLU64      -0.2457
     88  OE2       64.4820   29.9340   -4.3920 O.co2  64  GLU64      -0.2457
     89  N         64.9450   34.0820   -0.3570 N.am   65  SER65      -0.1938
     90  CA        65.2430   34.7350    0.9180 C.3    65  SER65       0.2055
     91  C         66.6990   34.8070    1.3430 C.2    65  SER65       0.2642
     92  O         67.1670   35.8550    1.7710 O.2    65  SER65      -0.2714
     93  CB        64.4460   34.0720    2.0380 C.3    65  SER65       0.2130
     94  OG        64.8570   32.7300    2.2120 O.3    65  SER65      -0.2179
     95  N         67.4170   33.6990    1.2400 N.am   66  ARG66      -0.1977
     96  CA        68.8120   33.6780    1.6550 C.3    66  ARG66       0.1597
     97  C         69.7040   34.4880    0.7120 C.2    66  ARG66       0.2287
     98  O         70.7000   35.0690    1.1370 O.2    66  ARG66      -0.2864
     99  CB        69.2520   32.2180    1.8140 C.3    66  ARG66       0.0334
    100  CG        68.3610   31.5140    2.8610 C.3    66  ARG66       0.0492
    101  CD        68.5350   30.0020    2.9340 C.3    66  ARG66       0.2205
    102  NE        67.4850   29.3880    3.7480 N.pl3  66  ARG66      -0.0865
    103  CZ        66.2340   29.1750    3.3420 C.cat  66  ARG66       0.5346
    104  NH1       65.8560   29.5150    2.1170 N.pl3  66  ARG66       0.1354
    105  NH2       65.3480   28.6390    4.1710 N.pl3  66  ARG66       0.1354
    106  N         67.7520   25.8080    4.1820 N.3   101  MET101     -0.1245
    107  CA        66.7800   25.6090    3.1030 C.3   101  MET101      0.1570
    108  C         66.4920   24.1440    2.7530 C.2   101  MET101      0.2261
    109  O         65.3380   23.7100    2.7550 O.2   101  MET101     -0.2867
    110  CB        67.2310   26.3300    1.8280 C.3   101  MET101      0.0387
    111  CG        66.2440   26.1800    0.6640 C.3   101  MET101      0.0595
    112  SD        66.8330   26.9520   -0.8610 S.3   101  MET101     -0.1393
    113  CE        67.9640   25.7850   -1.3810 C.3   101  MET101      0.0692
    114  N         64.3730   23.5640    7.1210 N.3   105  TYR105     -0.1241
    115  CA        63.0250   23.9940    6.7780 C.3   105  TYR105      0.1605
    116  C         62.3280   23.0060    5.8580 C.2   105  TYR105      0.2264
    117  O         61.1280   22.7730    5.9830 O.2   105  TYR105     -0.2867
    118  CB        63.0210   25.3680    6.1090 C.3   105  TYR105      0.0534
    119  CG        61.6390   25.9640    6.1350 C.ar  105  TYR105     -0.0201
    120  CD1       61.1520   26.5710    7.2910 C.ar  105  TYR105     -0.0009
    121  CD2       60.7770   25.8270    5.0470 C.ar  105  TYR105     -0.0009
    122  CE1       59.8350   27.0230    7.3720 C.ar  105  TYR105      0.0417
    123  CE2       59.4510   26.2760    5.1180 C.ar  105  TYR105      0.0417
    124  CZ        58.9920   26.8700    6.2870 C.ar  105  TYR105      0.1957
    125  OH        57.6840   27.3030    6.3840 O.3   105  TYR105     -0.2866
    126  N         53.1870   20.6140    6.4500 N.3   113  TYR113     -0.1241
    127  CA        52.3170   21.0800    5.3760 C.3   113  TYR113      0.1605
    128  C         51.1910   20.1050    5.0370 C.2   113  TYR113      0.2264
    129  O         50.0360   20.5080    4.9600 O.2   113  TYR113     -0.2867
    130  CB        53.1430   21.4140    4.1290 C.3   113  TYR113      0.0534
    131  CG        53.8610   22.7470    4.2240 C.ar  113  TYR113     -0.0201
    132  CD1       53.9960   23.4040    5.4470 C.ar  113  TYR113     -0.0009
    133  CD2       54.4050   23.3490    3.0910 C.ar  113  TYR113     -0.0009
    134  CE1       54.6520   24.6270    5.5430 C.ar  113  TYR113      0.0417
    135  CE2       55.0660   24.5780    3.1760 C.ar  113  TYR113      0.0417
    136  CZ        55.1830   25.2080    4.4060 C.ar  113  TYR113      0.1957
    137  OH        55.8280   26.4190    4.4970 O.3   113  TYR113     -0.2866
@<TRIPOS>BOND
     1    40    41    1
     2    56    58   ar
     3    56    54   ar
     4    58    57   ar
     5    41    44    1
     6    41    42    1
     7    54    53    1
     8    54    55   ar
     9    44    45    1
    10    49    42   am
    11    49    50    1
    12    57    55   ar
    13    42    43    2
    14    53    50    1
    15    33    32    2
    16    45    46    1
    17    50    51    1
    18    48    46   am
    19    46    47    2
    20    32    31    1
    21    51    52    2
    22    51    59   am
    23    31    30    1
    24    31    34    1
    25    59    60    1
    26    37    39   ar
    27    37    35   ar
    28    39    38   ar
    29    35    34    1
    30    35    36   ar
    31    38    36   ar
    32    64    63    1
    33    60    63    1
    34    60    61    1
    35    62    61    2
    36    88    86   ar
    37    85    86    1
    38    85    84    1
    39    61    65   am
    40    86    87   ar
    41    25    24    2
    42    80    81    1
    43    84    81    1
    44    65    66    1
    45    29    27    1
    46    81    82    1
    47    24    23    1
    48    76    75    2
    49    23    26    1
    50    23    22    1
    51    71    69    1
    52    66    69    1
    53    66    67    1
    54    26    27    1
    55    75    74    1
    56    27    28    1
    57    83    82    2
    58    82    89   am
    59   113   112    1
    60    69    70    1
    61    67    68    2
    62    67    73   am
    63   112   111    1
    64    74    73    1
    65    74    77    1
    66    70    72    1
    67    73    79    1
    68    89    90    1
    69    79    78    1
    70    77    78    1
    71   111   110    1
    72    97    98    2
    73    97    96    1
    74    90    91    1
    75    90    93    1
    76    95    91   am
    77    95    96    1
    78    91    92    2
    79    96    99    1
    80    99   100    1
    81   110   107    1
    82    93    94    1
    83   104   103    1
    84   108   109    2
    85   108   107    1
    86   100   101    1
    87     7     6    1
    88   101   102    1
    89   133   135   ar
    90   133   131   ar
    91   107   106    1
    92    19    20    1
    93    19    16    1
    94     8     6    1
    95   135   136   ar
    96     1     2    1
    97    20    21    1
    98   103   102    2
    99   103   105    1
   100     5     6    1
   101     5     2    1
   102     2     3    1
   103    14    13    1
   104   130   131    1
   105   130   127    1
   106   131   132   ar
   107    18    17    2
   108   136   137    1
   109   136   134   ar
   110    17    16    1
   111    16    15    1
   112    21    15    1
   113    13    10    1
   114   129   128    2
   115   128   127    1
   116   121   123   ar
   117   121   119   ar
   118   123   124   ar
   119   127   126    1
   120     3     4    2
   121   132   134   ar
   122   116   117    2
   123   116   115    1
   124   118   119    1
   125   118   115    1
   126   119   120   ar
   127    10    11    1
   128    10     9    1
   129   124   125    1
   130   124   122   ar
   131   115   114    1
   132    11    12    2
   133   120   122   ar
