@<TRIPOS>MOLECULE
tmp/1jm6A00.pdb
 177 169 0 0 0
SMALL
GASTEIGER

@<TRIPOS>ATOM
      1  N         11.6860   -6.1130   37.0410 N.3   225  GLU225     -0.1231
      2  CA        11.2710   -7.2570   36.2540 C.3   225  GLU225      0.1699
      3  C         12.4130   -8.2220   35.9510 C.2   225  GLU225      0.2592
      4  O         12.3240   -9.4410   36.0740 O.2   225  GLU225     -0.2718
      5  CB        10.6640   -6.8100   34.9240 C.3   225  GLU225      0.0402
      6  CG         9.2750   -6.1990   35.0220 C.3   225  GLU225      0.1161
      7  CD         8.2700   -7.0680   35.7550 C.2   225  GLU225      0.3649
      8  OE1        7.9950   -8.2090   35.3210 O.co2 225  GLU225     -0.2457
      9  OE2        7.7350   -6.5990   36.7910 O.co2 225  GLU225     -0.2457
     10  N         13.5400   -7.6300   35.5460 N.am  226  LEU226     -0.1980
     11  CA        14.8160   -8.2780   35.3120 C.3   226  LEU226      0.1596
     12  C         15.4350   -8.8030   36.6020 C.2   226  LEU226      0.2287
     13  O         15.9130   -9.9430   36.6570 O.2   226  LEU226     -0.2864
     14  CB        15.7960   -7.2980   34.6510 C.3   226  LEU226      0.0297
     15  CG        15.5040   -6.8850   33.2050 C.3   226  LEU226      0.0022
     16  CD1       16.4960   -5.8200   32.7480 C.3   226  LEU226      0.0001
     17  CD2       15.5740   -8.0900   32.2680 C.3   226  LEU226      0.0001
     18  N         13.7500  -11.9940   37.6000 N.3   229  ASN229     -0.1225
     19  CA        14.1790  -13.0580   36.7060 C.3   229  ASN229      0.1785
     20  C         15.5490  -13.6030   37.0870 C.2   229  ASN229      0.2597
     21  O         15.7960  -14.8080   37.0590 O.2   229  ASN229     -0.2718
     22  CB        14.2370  -12.5490   35.2580 C.3   229  ASN229      0.1169
     23  CG        12.8120  -12.4920   34.6520 C.2   229  ASN229      0.2627
     24  OD1       11.9370  -13.0060   35.3890 O.2   229  ASN229     -0.2716
     25  ND2       12.7430  -11.9050   33.4890 N.am  229  ASN229     -0.0877
     26  N         16.4430  -12.6740   37.4230 N.am  230  ALA230     -0.1979
     27  CA        17.7990  -13.0500   37.8030 C.3   230  ALA230      0.1597
     28  C         17.8460  -13.6990   39.1730 C.2   230  ALA230      0.2287
     29  O         18.6610  -14.5850   39.4460 O.2   230  ALA230     -0.2864
     30  CB        18.6950  -11.8180   37.7610 C.3   230  ALA230      0.0319
     31  N         15.4470  -15.4560   40.5310 N.3   232  ARG232     -0.1231
     32  CA        14.8220  -16.7570   40.3590 C.3   232  ARG232      0.1694
     33  C         15.7880  -17.7630   39.7390 C.2   232  ARG232      0.2591
     34  O         15.9830  -18.8650   40.2480 O.2   232  ARG232     -0.2718
     35  CB        13.5670  -16.6530   39.4790 C.3   232  ARG232      0.0321
     36  CG        12.9200  -18.0270   39.3180 C.3   232  ARG232      0.0489
     37  CD        11.5990  -17.8980   38.5660 C.3   232  ARG232      0.2205
     38  NE        11.1910  -19.1920   38.0310 N.pl3 232  ARG232     -0.0865
     39  CZ        10.7430  -19.4070   36.8030 C.cat 232  ARG232      0.5346
     40  NH1       10.6180  -18.4150   35.9330 N.pl3 232  ARG232      0.1354
     41  NH2       10.4100  -20.6460   36.4600 N.pl3 232  ARG232      0.1354
     42  N         16.3970  -17.3550   38.6320 N.am  233  ALA233     -0.1980
     43  CA        17.4030  -18.1550   37.9480 C.3   233  ALA233      0.1597
     44  C         18.5170  -18.5680   38.8960 C.2   233  ALA233      0.2287
     45  O         18.9100  -19.7400   38.9540 O.2   233  ALA233     -0.2864
     46  CB        17.9620  -17.3710   36.7680 C.3   233  ALA233      0.0319
     47  N         23.9450  -12.3790   35.8170 N.3   264  ASP264     -0.1239
     48  CA        23.6990  -13.3750   36.8480 C.3   264  ASP264      0.1674
     49  C         24.4190  -14.6710   36.4900 C.2   264  ASP264      0.2266
     50  O         24.8090  -14.8750   35.3420 O.2   264  ASP264     -0.2867
     51  CB        22.2090  -13.6350   37.0450 C.3   264  ASP264      0.1410
     52  CG        21.5320  -14.3950   35.9190 C.2   264  ASP264      0.3668
     53  OD1       20.6070  -13.8360   35.2880 O.co2 264  ASP264     -0.2456
     54  OD2       21.8960  -15.5610   35.6530 O.co2 264  ASP264     -0.2456
     55  N         22.8070  -17.5250   36.8840 N.3   266  GLY266     -0.1225
     56  CA        21.6210  -18.3480   37.0020 C.3   266  GLY266      0.1811
     57  C         21.5810  -19.5560   36.0900 C.2   266  GLY266      0.2280
     58  O         20.5030  -20.1100   35.8670 O.2   266  GLY266     -0.2866
     59  N         22.0490  -19.7140   32.8660 N.3   268  GLY268     -0.1210
     60  CA        21.8660  -19.3850   31.4670 C.3   268  GLY268      0.1956
     61  C         20.7660  -20.1520   30.7660 C.2   268  GLY268      0.2611
     62  O         20.0000  -20.9100   31.3580 O.2   268  GLY268     -0.2717
     63  N         20.6600  -19.9460   29.4620 N.am  269  VAL269     -0.1979
     64  CA        19.6850  -20.5290   28.5620 C.3   269  VAL269      0.1595
     65  C         20.3230  -20.8860   27.2220 C.2   269  VAL269      0.2287
     66  O         21.1590  -20.1330   26.7190 O.2   269  VAL269     -0.2864
     67  CB        18.5310  -19.5370   28.3040 C.3   269  VAL269      0.0276
     68  CG1       17.5460  -20.0990   27.2960 C.3   269  VAL269      0.0022
     69  CG2       17.8350  -19.1860   29.6110 C.3   269  VAL269      0.0022
     70  N         12.2500  -16.4190   25.0370 N.3   277  LEU277     -0.1245
     71  CA        12.1810  -15.6840   26.3070 C.3   277  LEU277      0.1561
     72  C         11.2880  -14.4930   26.1890 C.2   277  LEU277      0.2260
     73  O         11.0020  -13.8210   27.1830 O.2   277  LEU277     -0.2867
     74  CB        13.5610  -15.2100   26.7440 C.3   277  LEU277      0.0270
     75  CG        14.6370  -16.2410   27.0490 C.3   277  LEU277      0.0019
     76  CD1       15.7580  -15.6220   27.8530 C.3   277  LEU277      0.0001
     77  CD2       14.0350  -17.4170   27.7860 C.3   277  LEU277      0.0001
     78  N          5.3910  -17.5230   26.6750 N.3   282  TYR282     -0.1227
     79  CA         6.4470  -18.3080   27.3070 C.3   282  TYR282      0.1736
     80  C          6.7800  -17.8290   28.7110 C.2   282  TYR282      0.2596
     81  O          6.9670  -16.6500   28.9790 O.2   282  TYR282     -0.2718
     82  CB         7.7100  -18.3120   26.4330 C.3   282  TYR282      0.0548
     83  CG         8.7910  -19.2530   26.9120 C.ar  282  TYR282     -0.0200
     84  CD1        8.7570  -20.6050   26.5490 C.ar  282  TYR282     -0.0009
     85  CD2        9.8550  -18.7940   27.6630 C.ar  282  TYR282     -0.0009
     86  CE1        9.7420  -21.4700   26.9790 C.ar  282  TYR282      0.0417
     87  CE2       10.8480  -19.6510   28.0900 C.ar  282  TYR282      0.0417
     88  CZ        10.7750  -20.9880   27.7780 C.ar  282  TYR282      0.1957
     89  OH        11.7550  -21.8520   28.1990 O.3   282  TYR282     -0.2866
     90  N          6.8480  -18.8240   29.5840 N.am  283  SER283     -0.1938
     91  CA         7.2080  -18.6790   30.9770 C.3   283  SER283      0.2055
     92  C          7.5360  -20.0520   31.5460 C.2   283  SER283      0.2643
     93  O          6.7960  -21.0400   31.3340 O.2   283  SER283     -0.2714
     94  CB         6.0740  -18.0700   31.8080 C.3   283  SER283      0.2130
     95  OG         6.3720  -18.1580   33.1950 O.3   283  SER283     -0.2179
     96  N          8.6720  -20.1190   32.2030 N.am  284  THR284     -0.1950
     97  CA         9.1410  -21.3680   32.7480 C.3   284  THR284      0.1897
     98  C          8.6290  -21.5240   34.1870 C.2   284  THR284      0.2313
     99  O          9.1910  -22.3030   34.9630 O.2   284  THR284     -0.2863
    100  CB        10.6660  -21.3790   32.6960 C.3   284  THR284      0.1794
    101  OG1       11.0920  -21.4690   31.3290 O.3   284  THR284     -0.2208
    102  CG2       11.2130  -22.5440   33.5000 C.3   284  THR284      0.0378
    103  N          8.1180  -14.5790   39.5060 N.3   289  ALA289     -0.1231
    104  CA         6.8830  -14.3680   38.7400 C.3   289  ALA289      0.1694
    105  C          6.6160  -15.5550   37.8120 C.2   289  ALA289      0.2593
    106  O          7.4870  -16.4420   37.6370 O.2   289  ALA289     -0.2718
    107  CB         6.9730  -13.0640   37.9400 C.3   289  ALA289      0.0304
    108  N          5.3960  -15.5590   37.2250 N.am  290  GLY290     -0.1942
    109  CA         4.9770  -16.6070   36.2910 C.3   290  GLY290      0.2014
    110  C          3.8520  -16.2340   35.3570 C.2   290  GLY290      0.2639
    111  O          2.8950  -17.0010   35.1890 O.2   290  GLY290     -0.2714
    112  N          3.9190  -15.0670   34.7090 N.am  291  PHE291     -0.1959
    113  CA         2.8950  -14.7650   33.7140 C.3   291  PHE291      0.1771
    114  C          3.5380  -14.3120   32.4100 C.2   291  PHE291      0.2620
    115  O          2.8720  -13.6490   31.6160 O.2   291  PHE291     -0.2715
    116  CB         1.8810  -13.7200   34.1730 C.3   291  PHE291      0.0574
    117  CG         2.0910  -13.0580   35.4960 C.ar  291  PHE291     -0.0200
    118  CD1        3.2660  -12.3660   35.7830 C.ar  291  PHE291     -0.0042
    119  CD2        1.0830  -13.0830   36.4590 C.ar  291  PHE291     -0.0042
    120  CE1        3.4340  -11.7240   37.0150 C.ar  291  PHE291     -0.0003
    121  CE2        1.2500  -12.4390   37.6730 C.ar  291  PHE291     -0.0003
    122  CZ         2.4250  -11.7660   37.9640 C.ar  291  PHE291     -0.0000
    123  N          4.8010  -14.6750   32.2350 N.am  292  GLY292     -0.1940
    124  CA         5.5870  -14.5580   31.0570 C.3   292  GLY292      0.2014
    125  C          5.4680  -13.3310   30.2060 C.2   292  GLY292      0.2639
    126  O          5.6070  -13.4190   28.9760 O.2   292  GLY292     -0.2714
    127  N          5.2280  -12.1540   30.8010 N.am  293  TYR293     -0.1959
    128  CA         5.2140  -10.9620   29.9500 C.3   293  TYR293      0.1771
    129  C          6.2780   -9.9630   30.3960 C.2   293  TYR293      0.2620
    130  O          6.4500   -8.9080   29.7810 O.2   293  TYR293     -0.2715
    131  CB         3.8380  -10.3040   29.9340 C.3   293  TYR293      0.0574
    132  CG         3.1650  -10.0540   31.2640 C.ar  293  TYR293     -0.0198
    133  CD1        3.6190   -9.0680   32.1220 C.ar  293  TYR293     -0.0009
    134  CD2        2.0660  -10.8190   31.6620 C.ar  293  TYR293     -0.0009
    135  CE1        3.0160   -8.8370   33.3350 C.ar  293  TYR293      0.0417
    136  CE2        1.4490  -10.6100   32.8730 C.ar  293  TYR293      0.0417
    137  CZ         1.9300   -9.6160   33.7010 C.ar  293  TYR293      0.1957
    138  OH         1.3170   -9.3870   34.9070 O.3   293  TYR293     -0.2866
    139  N          6.9610  -10.3120   31.4780 N.am  294  GLY294     -0.1940
    140  CA         7.9690   -9.4650   32.0590 C.3   294  GLY294      0.2014
    141  C          9.0120   -8.9830   31.0720 C.2   294  GLY294      0.2639
    142  O          9.4070   -7.8120   31.1200 O.2   294  GLY294     -0.2714
    143  N          9.4640   -9.8540   30.1870 N.am  295  LEU295     -0.1963
    144  CA        10.5150   -9.5270   29.2310 C.3   295  LEU295      0.1713
    145  C         10.0650   -8.7690   27.9950 C.2   295  LEU295      0.2458
    146  O         10.7500   -7.8200   27.5880 O.2   295  LEU295     -0.2730
    147  CB        11.1930  -10.8360   28.7770 C.3   295  LEU295      0.0310
    148  CG        12.4690  -11.2390   29.5100 C.3   295  LEU295      0.0022
    149  CD1       13.0010  -12.5390   28.9500 C.3   295  LEU295      0.0001
    150  CD2       13.5110  -10.1370   29.3930 C.3   295  LEU295      0.0001
    151  N          8.9690   -9.1110   27.3210 N.am  296  PRO296     -0.2727
    152  CA         8.6240   -8.3590   26.1040 C.3   296  PRO296      0.1402
    153  C          8.2570   -6.9170   26.4400 C.2   296  PRO296      0.2269
    154  O          8.5540   -5.9910   25.6810 O.2   296  PRO296     -0.2865
    155  CB         7.3890   -9.0760   25.5580 C.3   296  PRO296      0.0296
    156  CG         7.2640  -10.3440   26.2980 C.3   296  PRO296      0.0237
    157  CD         7.9980  -10.1710   27.5950 C.3   296  PRO296      0.0939
    158  N         19.0640   -9.7280   25.8040 N.3   311  LEU311     -0.1245
    159  CA        19.5260  -10.7860   26.6790 C.3   311  LEU311      0.1561
    160  C         20.5290  -11.6840   25.9640 C.2   311  LEU311      0.2260
    161  O         20.2580  -12.1410   24.8630 O.2   311  LEU311     -0.2867
    162  CB        18.3500  -11.6510   27.1640 C.3   311  LEU311      0.0270
    163  CG        17.9180  -11.4810   28.6150 C.3   311  LEU311      0.0019
    164  CD1       17.4080  -10.0680   28.8200 C.3   311  LEU311      0.0001
    165  CD2       16.8690  -12.5270   28.9850 C.3   311  LEU311      0.0001
    166  N         23.5920  -15.4060   32.5580 N.3   319  THR319     -0.1218
    167  CA        22.9190  -14.5810   31.5680 C.3   319  THR319      0.1862
    168  C         23.2010  -13.1000   31.7730 C.2   319  THR319      0.2287
    169  O         23.4360  -12.6280   32.8830 O.2   319  THR319     -0.2866
    170  CB        21.3980  -14.8310   31.6290 C.3   319  THR319      0.1770
    171  OG1       21.1560  -16.1980   31.2570 O.3   319  THR319     -0.2211
    172  CG2       20.6440  -13.9610   30.6480 C.3   319  THR319      0.0375
    173  N         21.5700   -9.4180   30.9420 N.3   321  ALA321     -0.1245
    174  CA        20.4870   -8.5720   30.4450 C.3   321  ALA321      0.1562
    175  C         21.0240   -7.1510   30.3030 C.2   321  ALA321      0.2260
    176  O         21.5390   -6.5900   31.2730 O.2   321  ALA321     -0.2867
    177  CB        19.2770   -8.6390   31.3570 C.3   321  ALA321      0.0290
@<TRIPOS>BOND
     1   161   160    2
     2    70    71    1
     3   155   152    1
     4   155   156    1
     5   154   153    2
     6   158   159    1
     7   160   159    1
     8   152   153    1
     9   152   151    1
    10    72    71    1
    11    72    73    2
    12   156   157    1
    13    71    74    1
    14    82    83    1
    15    82    79    1
    16    84    83   ar
    17    84    86   ar
    18    78    79    1
    19   159   162    1
    20    66    65    2
    21    74    75    1
    22    83    85   ar
    23    86    88   ar
    24    75    77    1
    25    75    76    1
    26   162   163    1
    27    65    64    1
    28    68    67    1
    29    79    80    1
    30   151   157    1
    31   151   145   am
    32   146   145    2
    33    85    87   ar
    34    88    87   ar
    35    88    89    1
    36   145   144    1
    37    67    64    1
    38    67    69    1
    39    64    63    1
    40   163   164    1
    41   163   165    1
    42    80    81    2
    43    80    90   am
    44   147   144    1
    45   147   148    1
    46   149   148    1
    47   126   125    2
    48   144   143    1
    49   150   148    1
    50    63    61   am
    51    90    91    1
    52   130   129    2
    53   131   128    1
    54   131   132    1
    55   128   129    1
    56   128   127    1
    57   143   141   am
    58   125   127   am
    59   125   124    1
    60   175   174    1
    61   175   176    2
    62   129   139   am
    63   174   173    1
    64   174   177    1
    65   172   170    1
    66    61    62    2
    67    61    60    1
    68    91    92    1
    69    91    94    1
    70   124   123    1
    71   141   142    2
    72   141   140    1
    73   171   170    1
    74   132   134   ar
    75   132   133   ar
    76   101   100    1
    77    93    92    2
    78    60    59    1
    79   139   140    1
    80    92    96   am
    81   167   170    1
    82   167   168    1
    83   167   166    1
    84   115   114    2
    85   134   136   ar
    86   168   169    2
    87    94    95    1
    88   133   135   ar
    89    96    97    1
    90   123   114   am
    91    17    15    1
    92   114   113    1
    93   100    97    1
    94   100   102    1
    95    16    15    1
    96    97    98    1
    97   136   137   ar
    98    15    14    1
    99   135   137   ar
   100    25    23   am
   101   137   138    1
   102   113   116    1
   103   113   112    1
   104   116   117    1
   105    98    99    2
   106    14    11    1
   107    23    22    1
   108    23    24    2
   109   112   110   am
   110     5     6    1
   111     5     2    1
   112     6     7    1
   113   111   110    2
   114    22    19    1
   115    53    52   ar
   116    11    10    1
   117    11    12    1
   118     8     7   ar
   119    50    49    2
   120   110   109    1
   121   117   118   ar
   122   117   119   ar
   123    10     3   am
   124    54    52   ar
   125     7     9   ar
   126   118   120   ar
   127    47    48    1
   128    58    57    2
   129    52    51    1
   130    40    39    1
   131     3     4    2
   132     3     2    1
   133    57    56    1
   134     2     1    1
   135   109   108    1
   136   119   121   ar
   137    41    39    1
   138    49    48    1
   139    12    13    2
   140    19    20    1
   141    19    18    1
   142    46    43    1
   143    39    38    2
   144    48    51    1
   145    55    56    1
   146   120   122   ar
   147    21    20    2
   148    20    26   am
   149   108   105   am
   150    26    27    1
   151   106   105    2
   152   121   122   ar
   153    30    27    1
   154    27    28    1
   155   105   104    1
   156   107   104    1
   157    43    42    1
   158    43    44    1
   159    38    37    1
   160    37    36    1
   161    42    33   am
   162   104   103    1
   163    44    45    2
   164    28    29    2
   165    36    35    1
   166    35    32    1
   167    33    34    2
   168    33    32    1
   169    32    31    1
