@<TRIPOS>MOLECULE
tmp/1jmoB01.pdb
 106 103 0 0 0
SMALL
GASTEIGER

@<TRIPOS>ATOM
      1  N         83.9150   41.0730  137.4690 N.3   130  LEU130     -0.1231
      2  CA        82.8680   41.9330  138.0140 C.3   130  LEU130      0.1693
      3  C         83.4510   42.9110  139.0150 C.2   130  LEU130      0.2592
      4  O         83.2820   42.7390  140.2180 O.2   130  LEU130     -0.2718
      5  CB        81.7920   41.1150  138.7310 C.3   130  LEU130      0.0284
      6  CG        80.4870   40.7210  138.0330 C.3   130  LEU130      0.0019
      7  CD1       80.2850   41.5390  136.7670 C.3   130  LEU130      0.0001
      8  CD2       80.5190   39.2400  137.7360 C.3   130  LEU130      0.0001
      9  N         84.1340   43.9410  138.5360 N.am  131  GLN131     -0.1966
     10  CA        84.7170   44.9140  139.4460 C.3   131  GLN131      0.1733
     11  C         84.5780   46.3160  138.8790 C.2   131  GLN131      0.2616
     12  O         84.6060   46.5100  137.6590 O.2   131  GLN131     -0.2715
     13  CB        86.1850   44.5610  139.7100 C.3   131  GLN131      0.0408
     14  CG        86.3610   43.0890  140.0810 C.3   131  GLN131      0.0908
     15  CD        87.4650   42.8410  141.0930 C.2   131  GLN131      0.2608
     16  OE1       87.3850   43.2840  142.2460 O.2   131  GLN131     -0.2717
     17  NE2       88.5040   42.1200  140.6700 N.am  131  GLN131     -0.0878
     18  N         84.4020   47.2840  139.7710 N.am  132  ALA132     -0.1977
     19  CA        84.2260   48.6780  139.3820 C.3   132  ALA132      0.1597
     20  C         85.2850   49.1180  138.3890 C.2   132  ALA132      0.2287
     21  O         86.4580   48.8080  138.5590 O.2   132  ALA132     -0.2864
     22  CB        84.2650   49.5710  140.6210 C.3   132  ALA132      0.0319
     23  N         81.5110   49.0080  134.8410 N.3   167  ILE167     -0.1231
     24  CA        80.7500   48.5600  135.9990 C.3   167  ILE167      0.1692
     25  C         80.9720   49.6120  137.1010 C.2   167  ILE167      0.2592
     26  O         82.0590   50.1930  137.2120 O.2   167  ILE167     -0.2718
     27  CB        81.2460   47.1720  136.4540 C.3   167  ILE167      0.0266
     28  CG1       80.9610   46.1560  135.3410 C.3   167  ILE167      0.0019
     29  CG2       80.5860   46.7650  137.7750 C.3   167  ILE167      0.0020
     30  CD1       81.5640   44.7820  135.5780 C.3   167  ILE167      0.0001
     31  N         79.9410   49.8470  137.9070 N.am  168  VAL168     -0.1966
     32  CA        79.9700   50.8540  138.9660 C.3   168  VAL168      0.1727
     33  C         79.9330   50.2680  140.3750 C.2   168  VAL168      0.2616
     34  O         79.2600   49.2680  140.6180 O.2   168  VAL168     -0.2715
     35  CB        78.7630   51.8220  138.7900 C.3   168  VAL168      0.0290
     36  CG1       78.6990   52.8310  139.9370 C.3   168  VAL168      0.0023
     37  CG2       78.8660   52.5290  137.4380 C.3   168  VAL168      0.0023
     38  N         80.6450   50.9090  141.3010 N.am  169  GLU169     -0.1963
     39  CA        80.7080   50.4670  142.7020 C.3   169  GLU169      0.1733
     40  C         79.3170   50.3970  143.3280 C.2   169  GLU169      0.2616
     41  O         78.5010   51.2870  143.1170 O.2   169  GLU169     -0.2715
     42  CB        81.5550   51.4330  143.5400 C.3   169  GLU169      0.0429
     43  CG        82.8470   51.9330  142.8970 C.3   169  GLU169      0.1163
     44  CD        82.6190   53.0090  141.8440 C.2   169  GLU169      0.3649
     45  OE1       82.2700   52.6720  140.6930 O.co2 169  GLU169     -0.2457
     46  OE2       82.7830   54.2040  142.1700 O.co2 169  GLU169     -0.2457
     47  N         79.0530   49.3540  144.1090 N.am  170  ARG170     -0.1977
     48  CA        77.7580   49.2100  144.7680 C.3   170  ARG170      0.1597
     49  C         77.2900   50.4740  145.4850 C.2   170  ARG170      0.2287
     50  O         76.1550   50.8970  145.3060 O.2   170  ARG170     -0.2864
     51  CB        77.7820   48.0720  145.7920 C.3   170  ARG170      0.0334
     52  CG        77.6390   46.6950  145.2050 C.3   170  ARG170      0.0492
     53  CD        77.7960   45.6160  146.2640 C.3   170  ARG170      0.2205
     54  NE        79.0900   45.7060  146.9440 N.pl3 170  ARG170     -0.0865
     55  CZ        79.5150   44.8420  147.8620 C.cat 170  ARG170      0.5346
     56  NH1       80.7050   45.0070  148.4270 N.pl3 170  ARG170      0.1354
     57  NH2       78.7530   43.8110  148.2100 N.pl3 170  ARG170      0.1354
     58  N         75.9390   52.9630  143.1400 N.3   173  CYS173     -0.1235
     59  CA        74.6860   52.4970  142.5570 C.3   173  CYS173      0.1677
     60  C         73.5840   52.6990  143.5810 C.2   173  CYS173      0.2270
     61  O         72.4950   53.1640  143.2530 O.2   173  CYS173     -0.2867
     62  CB        74.7280   51.0000  142.2020 C.3   173  CYS173      0.0956
     63  SG        75.9490   50.4660  140.9530 S.3   173  CYS173     -0.0801
     64  N         68.1080   48.0340  145.9260 N.3   181  ILE181     -0.1245
     65  CA        68.9780   47.1780  145.1270 C.3   181  ILE181      0.1561
     66  C         69.3450   45.9040  145.8910 C.2   181  ILE181      0.2260
     67  O         69.4040   45.9100  147.1200 O.2   181  ILE181     -0.2867
     68  CB        70.2730   47.9220  144.7840 C.3   181  ILE181      0.0252
     69  CG1       69.9390   49.2890  144.2060 C.3   181  ILE181      0.0019
     70  CG2       71.0900   47.1260  143.7900 C.3   181  ILE181      0.0019
     71  CD1       71.1540   50.1750  144.0650 C.3   181  ILE181      0.0001
     72  N         71.7110   41.9760  141.3510 N.3   185  MET185     -0.1230
     73  CA        71.7800   42.9310  140.2640 C.3   185  MET185      0.1702
     74  C         73.0110   43.7930  140.4330 C.2   185  MET185      0.2592
     75  O         73.5320   43.9180  141.5360 O.2   185  MET185     -0.2718
     76  CB        70.5140   43.7980  140.2220 C.3   185  MET185      0.0401
     77  CG        70.1580   44.4950  141.5170 C.3   185  MET185      0.0596
     78  SD        68.5560   45.3860  141.4460 S.3   185  MET185     -0.1393
     79  CE        67.4040   44.0690  141.8110 C.3   185  MET185      0.0692
     80  N         73.5100   44.3400  139.3290 N.am  186  PHE186     -0.1962
     81  CA        74.6660   45.2220  139.3810 C.3   186  PHE186      0.1771
     82  C         74.3710   46.3720  138.4360 C.2   186  PHE186      0.2619
     83  O         73.4660   46.2690  137.6080 O.2   186  PHE186     -0.2715
     84  CB        75.9790   44.4750  139.0260 C.3   186  PHE186      0.0574
     85  CG        76.1100   44.0580  137.5790 C.ar  186  PHE186     -0.0200
     86  CD1       76.6000   44.9440  136.6230 C.ar  186  PHE186     -0.0042
     87  CD2       75.7960   42.7640  137.1870 C.ar  186  PHE186     -0.0042
     88  CE1       76.7850   44.5410  135.2950 C.ar  186  PHE186     -0.0003
     89  CE2       75.9760   42.3490  135.8560 C.ar  186  PHE186     -0.0003
     90  CZ        76.4710   43.2390  134.9120 C.ar  186  PHE186     -0.0000
     91  N         75.0920   47.4800  138.5680 N.am  187  CYS187     -0.1968
     92  CA        74.8150   48.6050  137.7000 C.3   187  CYS187      0.1712
     93  C         76.0510   49.0230  136.9100 C.2   187  CYS187      0.2296
     94  O         77.1840   48.7560  137.3190 O.2   187  CYS187     -0.2864
     95  CB        74.1860   49.7530  138.5300 C.3   187  CYS187      0.0983
     96  SG        75.2260   51.1130  139.1650 S.3   187  CYS187     -0.0798
     97  N         72.4290   39.8450  137.6730 N.3   242  HIS242     -0.1241
     98  CA        73.7250   39.2120  137.9160 C.3   242  HIS242      0.1621
     99  C         73.6170   37.7450  137.5090 C.2   242  HIS242      0.2264
    100  O         73.1820   36.9040  138.2910 O.2   242  HIS242     -0.2867
    101  CB        74.0640   39.3450  139.4050 C.3   242  HIS242      0.0745
    102  CG        75.5120   39.1560  139.7250 C.ar  242  HIS242      0.0817
    103  ND1       76.2330   38.0580  139.3070 N.ar  242  HIS242     -0.2268
    104  CD2       76.3610   39.9010  140.4760 C.ar  242  HIS242      0.1154
    105  CE1       77.4620   38.1310  139.7870 C.ar  242  HIS242      0.1986
    106  NE2       77.5630   39.2390  140.5010 N.ar  242  HIS242     -0.2212
@<TRIPOS>BOND
     1    23    24    1
     2    90    88   ar
     3    90    89   ar
     4    88    86   ar
     5    28    30    1
     6    28    27    1
     7    89    87   ar
     8    24    27    1
     9    24    25    1
    10    27    29    1
    11    86    85   ar
    12     7     6    1
    13    93    94    2
    14    93    92    1
    15    25    26    2
    16    25    31   am
    17    87    85   ar
    18    37    35    1
    19     1     2    1
    20    99    98    1
    21    99   100    2
    22    85    84    1
    23    83    82    2
    24    12    11    2
    25    97    98    1
    26    92    95    1
    27    92    91    1
    28     8     6    1
    29    31    32    1
    30    98   101    1
    31     2     5    1
    32     2     3    1
    33     6     5    1
    34    20    21    2
    35    20    19    1
    36    82    91   am
    37    82    81    1
    38    95    96    1
    39     9     3   am
    40     9    10    1
    41    35    32    1
    42    35    36    1
    43    11    10    1
    44    11    18   am
    45    32    33    1
    46     3     4    2
    47    84    81    1
    48    96    63    1
    49   103   102   ar
    50   103   105   ar
    51    80    81    1
    52    80    74   am
    53    19    18    1
    54    19    22    1
    55   101   102    1
    56    10    13    1
    57    13    14    1
    58   102   104   ar
    59   105   106   ar
    60    14    15    1
    61    76    73    1
    62    76    77    1
    63    73    74    1
    64    73    72    1
    65    33    34    2
    66    33    38   am
    67    74    75    2
    68   104   106   ar
    69    17    15   am
    70    45    44   ar
    71    63    62    1
    72    15    16    2
    73    38    39    1
    74    78    77    1
    75    78    79    1
    76    44    46   ar
    77    44    43    1
    78    62    59    1
    79    59    58    1
    80    59    60    1
    81    39    40    1
    82    39    42    1
    83    43    42    1
    84    41    40    2
    85    61    60    2
    86    40    47   am
    87    70    68    1
    88    71    69    1
    89    47    48    1
    90    69    68    1
    91    48    49    1
    92    48    51    1
    93    68    65    1
    94    65    66    1
    95    65    64    1
    96    52    51    1
    97    52    53    1
    98    50    49    2
    99    66    67    2
   100    53    54    1
   101    54    55    2
   102    55    57    1
   103    55    56    1
