@<TRIPOS>MOLECULE
tmp/1jmuD00.pdb
 102 95 0 0 0
SMALL
GASTEIGER

@<TRIPOS>ATOM
      1  N         80.5460   32.1170  170.8300 N.3   128  ALA128     -0.1245
      2  CA        81.6220   32.8750  170.2310 C.3   128  ALA128      0.1562
      3  C         81.1780   34.3120  170.0090 C.2   128  ALA128      0.2260
      4  O         81.9840   35.2380  170.0800 O.2   128  ALA128     -0.2867
      5  CB        82.0300   32.2510  168.9150 C.3   128  ALA128      0.0290
      6  N         91.0440   41.9680  164.1010 N.3   145  MET145     -0.1245
      7  CA        90.4710   40.6360  163.9650 C.3   145  MET145      0.1570
      8  C         91.3950   39.5610  164.5130 C.2   145  MET145      0.2261
      9  O         90.9410   38.5270  164.9880 O.2   145  MET145     -0.2867
     10  CB        90.1690   40.3280  162.5000 C.3   145  MET145      0.0387
     11  CG        89.5590   38.9450  162.2600 C.3   145  MET145      0.0595
     12  SD        87.8590   38.7620  162.8690 S.3   145  MET145     -0.1393
     13  CE        88.1770   37.8830  164.3670 C.3   145  MET145      0.0692
     14  N         90.4950   36.7550  167.4310 N.3   149  VAL149     -0.1245
     15  CA        90.6780   35.3130  167.3260 C.3   149  VAL149      0.1561
     16  C         91.6190   34.8230  168.4220 C.2   149  VAL149      0.2260
     17  O         91.4550   33.7270  168.9460 O.2   149  VAL149     -0.2867
     18  CB        91.2320   34.9140  165.9390 C.3   149  VAL149      0.0252
     19  CG1       91.5470   33.4270  165.9050 C.3   149  VAL149      0.0019
     20  CG2       90.2140   35.2550  164.8610 C.3   149  VAL149      0.0019
     21  N         89.4370   34.4810  171.5130 N.3   152  LEU152     -0.1231
     22  CA        88.5810   33.3080  171.3990 C.3   152  LEU152      0.1693
     23  C         89.3770   32.0380  171.6530 C.2   152  LEU152      0.2592
     24  O         88.9660   31.1700  172.4250 O.2   152  LEU152     -0.2718
     25  CB        87.9720   33.2270  170.0030 C.3   152  LEU152      0.0284
     26  CG        86.9070   34.2580  169.6530 C.3   152  LEU152      0.0019
     27  CD1       86.5670   34.1320  168.1810 C.3   152  LEU152      0.0001
     28  CD2       85.6680   34.0420  170.5180 C.3   152  LEU152      0.0001
     29  N         90.5210   31.9380  170.9870 N.am  153  ASP153     -0.1974
     30  CA        91.3800   30.7700  171.1100 C.3   153  ASP153      0.1709
     31  C         91.8240   30.5530  172.5540 C.2   153  ASP153      0.2293
     32  O         91.9930   29.4190  173.0040 O.2   153  ASP153     -0.2864
     33  CB        92.5920   30.9340  170.1860 C.3   153  ASP153      0.1436
     34  CG        93.5430   29.7430  170.2320 C.2   153  ASP153      0.3671
     35  OD1       93.0780   28.5820  170.1570 O.co2 153  ASP153     -0.2456
     36  OD2       94.7710   29.9760  170.3290 O.co2 153  ASP153     -0.2456
     37  N         87.6280   30.1020  174.4630 N.3   156  LEU156     -0.1245
     38  CA        86.5710   29.1610  174.0800 C.3   156  LEU156      0.1561
     39  C         86.7110   27.8050  174.7630 C.2   156  LEU156      0.2260
     40  O         87.8220   27.3420  175.0110 O.2   156  LEU156     -0.2867
     41  CB        86.5320   28.9660  172.5600 C.3   156  LEU156      0.0270
     42  CG        86.0120   30.1230  171.7000 C.3   156  LEU156      0.0019
     43  CD1       86.0630   29.7230  170.2480 C.3   156  LEU156      0.0001
     44  CD2       84.5860   30.4840  172.0780 C.3   156  LEU156      0.0001
     45  N         83.9550   25.1450  167.1960 N.3   162  ILE162     -0.1231
     46  CA        84.6670   26.1940  166.4850 C.3   162  ILE162      0.1692
     47  C         86.1510   25.8720  166.3790 C.2   162  ILE162      0.2591
     48  O         86.7950   26.2270  165.3900 O.2   162  ILE162     -0.2718
     49  CB        84.4800   27.5630  167.1680 C.3   162  ILE162      0.0266
     50  CG1       83.0070   27.9660  167.0920 C.3   162  ILE162      0.0019
     51  CG2       85.3450   28.6160  166.4920 C.3   162  ILE162      0.0020
     52  CD1       82.7120   29.3110  167.6910 C.3   162  ILE162      0.0001
     53  N         86.6880   25.1910  167.3880 N.am  163  ARG163     -0.1980
     54  CA        88.1040   24.8230  167.3850 C.3   163  ARG163      0.1597
     55  C         88.3840   23.7710  166.3210 C.2   163  ARG163      0.2287
     56  O         89.5090   23.6420  165.8390 O.2   163  ARG163     -0.2864
     57  CB        88.5240   24.2820  168.7560 C.3   163  ARG163      0.0334
     58  CG        88.5550   25.3280  169.8600 C.3   163  ARG163      0.0492
     59  CD        88.9650   24.7140  171.1890 C.3   163  ARG163      0.2205
     60  NE        89.0800   25.7140  172.2450 N.pl3 163  ARG163     -0.0865
     61  CZ        89.9520   26.7170  172.2300 C.cat 163  ARG163      0.5346
     62  NH1       90.7920   26.8540  171.2140 N.pl3 163  ARG163      0.1354
     63  NH2       89.9790   27.5910  173.2270 N.pl3 163  ARG163      0.1354
     64  N         87.2860   26.0630  162.3000 N.3   166  PRO166     -0.2116
     65  CA        87.5170   27.5100  162.3040 C.3   166  PRO166      0.1372
     66  C         87.0030   28.2450  161.0760 C.2   166  PRO166      0.2244
     67  O         86.3020   29.2560  161.1960 O.2   166  PRO166     -0.2868
     68  CB        89.0310   27.6140  162.4380 C.3   166  PRO166      0.0268
     69  CG        89.3600   26.4200  163.2850 C.3   166  PRO166      0.0207
     70  CD        88.5220   25.3380  162.6420 C.3   166  PRO166      0.0892
     71  N         83.2310   28.2300  160.8440 N.3   169  ALA169     -0.1231
     72  CA        82.7330   29.1470  161.8520 C.3   169  ALA169      0.1694
     73  C         82.8550   30.5820  161.3260 C.2   169  ALA169      0.2591
     74  O         81.9910   31.4230  161.5790 O.2   169  ALA169     -0.2718
     75  CB        83.5370   28.9790  163.1390 C.3   169  ALA169      0.0304
     76  N         83.9330   30.8520  160.5940 N.am  170  ALA170     -0.1980
     77  CA        84.1770   32.1740  160.0290 C.3   170  ALA170      0.1597
     78  C         83.0350   32.5510  159.1130 C.2   170  ALA170      0.2287
     79  O         82.4250   33.6060  159.2660 O.2   170  ALA170     -0.2864
     80  CB        85.4910   32.1850  159.2630 C.3   170  ALA170      0.0319
     81  N         79.6670   33.0720  160.9550 N.3   173  LEU173     -0.1245
     82  CA        79.5720   34.3750  161.6000 C.3   173  LEU173      0.1561
     83  C         79.3650   35.4620  160.5540 C.2   173  LEU173      0.2260
     84  O         78.4090   36.2420  160.6300 O.2   173  LEU173     -0.2867
     85  CB        80.8400   34.6690  162.4000 C.3   173  LEU173      0.0270
     86  CG        81.1470   33.6930  163.5360 C.3   173  LEU173      0.0019
     87  CD1       82.3770   34.1590  164.2640 C.3   173  LEU173      0.0001
     88  CD2       79.9730   33.6200  164.4970 C.3   173  LEU173      0.0001
     89  N         85.9000   38.2430  156.4480 N.3   182  TRP182     -0.1241
     90  CA        87.1420   37.5120  156.2230 C.3   182  TRP182      0.1605
     91  C         87.7060   37.7870  154.8360 C.2   182  TRP182      0.2264
     92  O         87.0390   37.5400  153.8230 O.2   182  TRP182     -0.2867
     93  CB        86.8960   36.0210  156.3940 C.3   182  TRP182      0.0550
     94  CG        86.3030   35.7300  157.7190 C.ar  182  TRP182      0.0003
     95  CD1       84.9860   35.4910  158.0040 C.ar  182  TRP182      0.0946
     96  CD2       86.9960   35.7150  158.9690 C.ar  182  TRP182      0.0152
     97  NE1       84.8190   35.3280  159.3620 N.ar  182  TRP182     -0.2442
     98  CE2       86.0380   35.4610  159.9770 C.ar  182  TRP182      0.0810
     99  CE3       88.3380   35.8930  159.3360 C.ar  182  TRP182      0.0012
    100  CZ2       86.3800   35.3810  161.3330 C.ar  182  TRP182      0.0191
    101  CZ3       88.6800   35.8130  160.6810 C.ar  182  TRP182      0.0001
    102  CH2       87.7030   35.5590  161.6640 C.ar  182  TRP182      0.0015
@<TRIPOS>BOND
     1    92    91    2
     2    91    90    1
     3    90    93    1
     4    90    89    1
     5    93    94    1
     6    94    95   ar
     7    94    96   ar
     8    95    97   ar
     9    96    99   ar
    10    96    98   ar
    11    78    79    2
    12    78    77    1
    13    80    77    1
    14    99   101   ar
    15    97    98   ar
    16    98   100   ar
    17    77    76    1
    18    83    84    2
    19    83    82    1
    20    76    73   am
    21   101   102   ar
    22    71    72    1
    23    81    82    1
    24    66    67    2
    25    66    65    1
    26    73    74    2
    27    73    72    1
    28   100   102   ar
    29    82    85    1
    30    72    75    1
    31    11    10    1
    32    11    12    1
    33    64    65    1
    34    64    70    1
    35    65    68    1
    36    85    86    1
    37    68    69    1
    38    10     7    1
    39    70    69    1
    40    12    13    1
    41    86    87    1
    42    86    88    1
    43     7     6    1
    44     7     8    1
    45     8     9    2
    46    20    18    1
    47    48    47    2
    48    56    55    2
    49    19    18    1
    50    18    15    1
    51    55    54    1
    52    47    46    1
    53    47    53   am
    54    46    49    1
    55    46    45    1
    56    51    49    1
    57    50    49    1
    58    50    52    1
    59    15    14    1
    60    15    16    1
    61    54    53    1
    62    54    57    1
    63    27    26    1
    64    16    17    2
    65    57    58    1
    66     5     2    1
    67    26    25    1
    68    26    28    1
    69    58    59    1
    70    25    22    1
    71     3     4    2
    72     3     2    1
    73    35    34   ar
    74    33    34    1
    75    33    30    1
    76     2     1    1
    77    34    36   ar
    78    43    42    1
    79    29    30    1
    80    29    23   am
    81    30    31    1
    82    59    60    1
    83    62    61    1
    84    22    21    1
    85    22    23    1
    86    23    24    2
    87    42    44    1
    88    42    41    1
    89    61    60    2
    90    61    63    1
    91    31    32    2
    92    41    38    1
    93    38    37    1
    94    38    39    1
    95    39    40    2
