@<TRIPOS>MOLECULE
tmp/1jmzA01.pdb
 207 196 0 0 0
SMALL
GASTEIGER

@<TRIPOS>ATOM
      1  N        153.0610   31.2340   12.7900 N.3     7  LEU7       -0.1245
      2  CA       152.6760   30.6350   14.0580 C.3     7  LEU7        0.1561
      3  C        153.7720   30.8990   15.0800 C.2     7  LEU7        0.2260
      4  O        153.5040   31.3140   16.2000 O.2     7  LEU7       -0.2867
      5  CB       152.5150   29.1260   13.9020 C.3     7  LEU7        0.0270
      6  CG       151.1110   28.5380   13.9390 C.3     7  LEU7        0.0019
      7  CD1      151.2170   27.0220   13.8620 C.3     7  LEU7        0.0001
      8  CD2      150.4050   28.9650   15.2170 C.3     7  LEU7        0.0001
      9  N        154.6450   34.9910   15.5240 N.3    10  LYS10      -0.1231
     10  CA       153.5560   35.7240   16.1750 C.3    10  LYS10       0.1693
     11  C        152.9480   35.1560   17.4590 C.2    10  LYS10       0.2592
     12  O        152.3890   35.9110   18.2510 O.2    10  LYS10      -0.2718
     13  CB       152.4160   35.9350   15.1740 C.3    10  LYS10       0.0285
     14  CG       152.7540   36.8120   13.9890 C.3    10  LYS10       0.0035
     15  CD       152.7770   38.2630   14.3860 C.3    10  LYS10       0.0206
     16  CE       153.1410   39.1360   13.2190 C.3    10  LYS10       0.1093
     17  NZ       153.0970   40.5650   13.6090 N.3    10  LYS10      -0.1314
     18  N        153.0330   33.8440   17.6590 N.am   11  CYS11      -0.1956
     19  CA       152.4150   33.2130   18.8320 C.3    11  CYS11       0.1843
     20  C        153.4000   32.7290   19.8930 C.2    11  CYS11       0.2625
     21  O        153.0540   32.6340   21.0700 O.2    11  CYS11      -0.2714
     22  CB       151.5110   32.0490   18.3810 C.3    11  CYS11       0.0997
     23  SG       150.6680   32.5560   16.8550 S.3    11  CYS11      -0.0797
     24  N        154.6190   32.4220   19.4680 N.am   12  MET12      -0.1977
     25  CA       155.6670   31.9330   20.3620 C.3    12  MET12       0.1605
     26  C        155.9550   32.9710   21.4620 C.2    12  MET12       0.2287
     27  O        155.6030   34.1510   21.3420 O.2    12  MET12      -0.2864
     28  CB       156.9110   31.6340   19.5280 C.3    12  MET12       0.0413
     29  CG       157.9740   30.8060   20.1790 C.3    12  MET12       0.0598
     30  SD       159.5420   31.3560   19.4880 S.3    12  MET12      -0.1393
     31  CE       159.9220   32.7140   20.5990 C.3    12  MET12       0.0692
     32  N        154.4660   33.4510   24.1750 N.3    14  CYS14      -0.1221
     33  CA       153.3030   33.2120   25.0270 C.3    14  CYS14       0.1808
     34  C        152.9060   31.7390   24.8970 C.2    14  CYS14       0.2601
     35  O        152.5040   31.1090   25.8660 O.2    14  CYS14      -0.2717
     36  CB       152.1390   34.1230   24.6430 C.3    14  CYS14       0.0970
     37  SG       152.4070   35.8620   24.9890 S.3    14  CYS14      -0.0800
     38  N        153.0450   31.1850   23.6960 N.am   15  HIS15      -0.1975
     39  CA       152.7310   29.7760   23.4620 C.3    15  HIS15       0.1656
     40  C        154.0090   28.9770   23.2830 C.2    15  HIS15       0.2291
     41  O        154.8390   29.2830   22.4330 O.2    15  HIS15      -0.2864
     42  CB       151.7950   29.6110   22.2670 C.3    15  HIS15       0.0771
     43  CG       150.4310   30.1650   22.5180 C.ar   15  HIS15       0.0820
     44  ND1      149.4740   29.4750   23.2260 N.ar   15  HIS15      -0.2267
     45  CD2      149.8930   31.3740   22.2350 C.ar   15  HIS15       0.1154
     46  CE1      148.4050   30.2360   23.3730 C.ar   15  HIS15       0.1986
     47  NE2      148.6330   31.3950   22.7810 N.ar   15  HIS15      -0.2212
     48  N        148.2750   24.8550   23.6590 N.3    25  ARG25      -0.1231
     49  CA       146.9180   25.3600   23.4360 C.3    25  ARG25       0.1694
     50  C        146.4820   25.2460   21.9770 C.2    25  ARG25       0.2591
     51  O        145.5470   24.5090   21.6580 O.2    25  ARG25      -0.2718
     52  CB       146.7660   26.8170   23.9080 C.3    25  ARG25       0.0321
     53  CG       147.3150   27.1480   25.3060 C.3    25  ARG25       0.0489
     54  CD       146.8160   26.2300   26.4130 C.3    25  ARG25       0.2205
     55  NE       145.3910   25.9570   26.3040 N.pl3  25  ARG25      -0.0865
     56  CZ       144.4220   26.8110   26.6180 C.cat  25  ARG25       0.5346
     57  NH1      144.7150   28.0190   27.0790 N.pl3  25  ARG25       0.1354
     58  NH2      143.1520   26.4540   26.4430 N.pl3  25  ARG25       0.1354
     59  N        147.1970   25.9520   21.1010 N.am   26  ILE26      -0.1980
     60  CA       146.9290   25.9990   19.6640 C.3    26  ILE26       0.1595
     61  C        146.7680   24.6540   18.9670 C.2    26  ILE26       0.2287
     62  O        145.7830   24.4370   18.2610 O.2    26  ILE26      -0.2864
     63  CB       148.0190   26.8090   18.9450 C.3    26  ILE26       0.0276
     64  CG1      148.0620   28.2230   19.5200 C.3    26  ILE26       0.0022
     65  CG2      147.7590   26.8530   17.4500 C.3    26  ILE26       0.0022
     66  CD1      149.2470   29.0410   19.0560 C.3    26  ILE26       0.0001
     67  N        143.2940   21.9260   19.8680 N.3    29  GLN29      -0.1245
     68  CA       141.9150   22.3270   19.6800 C.3    29  GLN29       0.1566
     69  C        141.5800   22.3240   18.1890 C.2    29  GLN29       0.2260
     70  O        142.4600   22.5190   17.3450 O.2    29  GLN29      -0.2867
     71  CB       141.7150   23.7420   20.2400 C.3    29  GLN29       0.0367
     72  CG       142.0020   23.8900   21.7290 C.3    29  GLN29       0.0905
     73  CD       141.9550   25.3350   22.2000 C.2    29  GLN29       0.2608
     74  OE1      141.5740   26.2350   21.4490 O.2    29  GLN29      -0.2717
     75  NE2      142.3510   25.5640   23.4460 N.am   29  GLN29      -0.0878
     76  N        138.5570   23.9140   15.5470 N.3    31  LYS31      -0.1245
     77  CA       137.4210   24.8330   15.4420 C.3    31  LYS31       0.1561
     78  C        137.0720   25.1130   13.9780 C.2    31  LYS31       0.2260
     79  O        137.7980   24.7310   13.0580 O.2    31  LYS31      -0.2867
     80  CB       137.7480   26.1870   16.0930 C.3    31  LYS31       0.0271
     81  CG       138.5720   26.1630   17.3660 C.3    31  LYS31       0.0035
     82  CD       139.0750   27.5630   17.6620 C.3    31  LYS31       0.0206
     83  CE       140.1640   27.5650   18.7180 C.3    31  LYS31       0.1093
     84  NZ       139.6290   27.4370   20.0770 N.3    31  LYS31      -0.1314
     85  N        138.4690   29.9880   14.6140 N.3    36  TRP36      -0.1241
     86  CA       139.8810   30.3340   14.6150 C.3    36  TRP36       0.1605
     87  C        140.1010   31.8380   14.5500 C.2    36  TRP36       0.2264
     88  O        140.9950   32.3600   15.2100 O.2    36  TRP36      -0.2867
     89  CB       140.6240   29.6230   13.4870 C.3    36  TRP36       0.0550
     90  CG       140.9130   28.2080   13.8130 C.ar   36  TRP36       0.0003
     91  CD1      140.4430   27.1060   13.1690 C.ar   36  TRP36       0.0946
     92  CD2      141.7090   27.7280   14.9000 C.ar   36  TRP36       0.0152
     93  NE1      140.8900   25.9630   13.7910 N.ar   36  TRP36      -0.2442
     94  CE2      141.6690   26.3170   14.8580 C.ar   36  TRP36       0.0810
     95  CE3      142.4520   28.3530   15.9090 C.ar   36  TRP36       0.0012
     96  CZ2      142.3440   25.5200   15.7870 C.ar   36  TRP36       0.0191
     97  CZ3      143.1220   27.5580   16.8300 C.ar   36  TRP36       0.0001
     98  CH2      143.0620   26.1580   16.7610 C.ar   36  TRP36       0.0015
     99  N        139.5090   33.2720   18.0710 N.3    39  SER39      -0.1202
    100  CA       140.5900   33.0100   19.0220 C.3    39  SER39       0.2020
    101  C        141.7450   33.9830   18.8240 C.2    39  SER39       0.2618
    102  O        142.3060   34.4870   19.7950 O.2    39  SER39      -0.2717
    103  CB       141.1020   31.5810   18.8870 C.3    39  SER39       0.2103
    104  OG       140.1960   30.6770   19.4630 O.3    39  SER39      -0.2182
    105  N        142.1050   34.2270   17.5630 N.am   40  ILE40      -0.1979
    106  CA       143.1840   35.1510   17.2360 C.3    40  ILE40       0.1595
    107  C        142.7610   36.5870   17.5470 C.2    40  ILE40       0.2287
    108  O        143.5670   37.3980   18.0010 O.2    40  ILE40      -0.2864
    109  CB       143.6130   35.0020   15.7790 C.3    40  ILE40       0.0276
    110  CG1      144.2160   33.6080   15.5740 C.3    40  ILE40       0.0022
    111  CG2      144.6000   36.0970   15.4060 C.3    40  ILE40       0.0022
    112  CD1      144.3970   33.2030   14.1320 C.3    40  ILE40       0.0001
    113  N        140.7860   37.4210   19.9560 N.3    42  ARG42      -0.1231
    114  CA       140.8570   37.5840   21.4070 C.3    42  ARG42       0.1694
    115  C        142.2940   37.8670   21.8200 C.2    42  ARG42       0.2591
    116  O        142.5320   38.5590   22.7970 O.2    42  ARG42      -0.2718
    117  CB       140.3530   36.3380   22.1440 C.3    42  ARG42       0.0321
    118  CG       138.8640   36.0410   21.9550 C.3    42  ARG42       0.0489
    119  CD       138.2840   35.1440   23.0430 C.3    42  ARG42       0.2205
    120  NE       138.9460   33.8480   23.1680 N.pl3  42  ARG42      -0.0865
    121  CZ       139.9370   33.5970   24.0180 C.cat  42  ARG42       0.5346
    122  NH1      140.3920   34.5570   24.8080 N.pl3  42  ARG42       0.1354
    123  NH2      140.4370   32.3800   24.1170 N.pl3  42  ARG42       0.1354
    124  N        143.2450   37.3110   21.0730 N.am   43  MET43      -0.1979
    125  CA       144.6600   37.5130   21.3570 C.3    43  MET43       0.1605
    126  C        145.0220   38.9740   21.1540 C.2    43  MET43       0.2287
    127  O        145.8250   39.5230   21.8950 O.2    43  MET43      -0.2864
    128  CB       145.5410   36.6400   20.4600 C.3    43  MET43       0.0413
    129  CG       145.3340   35.1590   20.6130 C.3    43  MET43       0.0598
    130  SD       145.5040   34.5930   22.3020 S.3    43  MET43      -0.1393
    131  CE       143.7980   34.0210   22.6880 C.3    43  MET43       0.0692
    132  N        145.1490   40.1680   24.8000 N.3    47  HIS47      -0.1226
    133  CA       146.5660   40.0030   25.0720 C.3    47  HIS47       0.1752
    134  C        147.5660   40.8720   24.3080 C.2    47  HIS47       0.2597
    135  O        148.7690   40.6450   24.4000 O.2    47  HIS47      -0.2718
    136  CB       146.9120   38.5220   24.9490 C.3    47  HIS47       0.0759
    137  CG       146.0170   37.6430   25.7590 C.ar   47  HIS47       0.0818
    138  ND1      145.7590   37.8800   27.0900 N.ar   47  HIS47      -0.2268
    139  CD2      145.2700   36.5700   25.4160 C.ar   47  HIS47       0.1154
    140  CE1      144.8900   36.9920   27.5340 C.ar   47  HIS47       0.1986
    141  NE2      144.5770   36.1860   26.5370 N.ar   47  HIS47      -0.2212
    142  N        147.0720   41.8510   23.5560 N.am   48  GLY48      -0.1942
    143  CA       147.9530   42.7410   22.8220 C.3    48  GLY48       0.2014
    144  C        148.7240   42.1960   21.6310 C.2    48  GLY48       0.2638
    145  O        149.7370   42.7760   21.2430 O.2    48  GLY48      -0.2714
    146  N        148.2510   41.1010   21.0430 N.am   49  LEU49      -0.1977
    147  CA       148.8950   40.5140   19.8720 C.3    49  LEU49       0.1596
    148  C        148.8750   41.5470   18.7470 C.2    49  LEU49       0.2287
    149  O        147.8450   42.1640   18.4940 O.2    49  LEU49      -0.2864
    150  CB       148.1170   39.2810   19.4120 C.3    49  LEU49       0.0297
    151  CG       148.7520   38.1570   18.5880 C.3    49  LEU49       0.0022
    152  CD1      147.7240   37.6560   17.6010 C.3    49  LEU49       0.0001
    153  CD2      150.0000   38.5910   17.8670 C.3    49  LEU49       0.0001
    154  N        149.1540   41.9320   14.9110 N.3    51  ILE51      -0.1245
    155  CA       149.0710   41.1620   13.6740 C.3    51  ILE51       0.1561
    156  C        148.1970   41.8480   12.6180 C.2    51  ILE51       0.2260
    157  O        147.1030   42.3330   12.9100 O.2    51  ILE51      -0.2867
    158  CB       148.5560   39.7210   13.9640 C.3    51  ILE51       0.0252
    159  CG1      148.6860   38.8470   12.7200 C.3    51  ILE51       0.0019
    160  CG2      147.1100   39.7500   14.4700 C.3    51  ILE51       0.0019
    161  CD1      148.4040   37.3940   12.9690 C.3    51  ILE51       0.0001
    162  N        146.8510   32.8240    8.9120 N.3    59  LEU59      -0.1245
    163  CA       146.8250   31.8890   10.0290 C.3    59  LEU59       0.1561
    164  C        145.4810   31.1940   10.1710 C.2    59  LEU59       0.2260
    165  O        145.4360   30.0020   10.4450 O.2    59  LEU59      -0.2867
    166  CB       147.2110   32.5890   11.3250 C.3    59  LEU59       0.0270
    167  CG       148.7150   32.7640   11.5170 C.3    59  LEU59       0.0019
    168  CD1      148.9720   33.5670   12.7880 C.3    59  LEU59       0.0001
    169  CD2      149.3860   31.3930   11.5900 C.3    59  LEU59       0.0001
    170  N        145.1370   27.1960   10.1160 N.3    63  LEU63      -0.1245
    171  CA       144.5760   26.5070   11.2670 C.3    63  LEU63       0.1561
    172  C        143.2310   25.8490   10.9890 C.2    63  LEU63       0.2260
    173  O        142.9300   24.8010   11.5500 O.2    63  LEU63      -0.2867
    174  CB       144.4780   27.4740   12.4350 C.3    63  LEU63       0.0270
    175  CG       145.8540   27.9540   12.8860 C.3    63  LEU63       0.0019
    176  CD1      145.7150   29.1500   13.8070 C.3    63  LEU63       0.0001
    177  CD2      146.5980   26.8090   13.5480 C.3    63  LEU63       0.0001
    178  N        137.7000   19.5980   21.8170 N.3   113  ARG113     -0.1245
    179  CA       138.8650   19.7170   22.6840 C.3   113  ARG113      0.1563
    180  C        138.9510   18.5800   23.6860 C.2   113  ARG113      0.2260
    181  O        137.9330   17.9790   24.0390 O.2   113  ARG113     -0.2867
    182  CB       138.7810   21.0030   23.5130 C.3   113  ARG113      0.0307
    183  CG       138.4770   22.2800   22.7730 C.3   113  ARG113      0.0489
    184  CD       138.1920   23.3630   23.7880 C.3   113  ARG113      0.2205
    185  NE       138.0690   24.6830   23.1950 N.pl3 113  ARG113     -0.0865
    186  CZ       138.6200   25.7760   23.7060 C.cat 113  ARG113      0.5346
    187  NH1      139.3400   25.7040   24.8180 N.pl3 113  ARG113      0.1354
    188  NH2      138.4120   26.9460   23.1300 N.pl3 113  ARG113      0.1354
    189  N        139.6230   26.4150   29.4840 N.3   121  LEU121     -0.1245
    190  CA       138.5800   27.3340   29.0470 C.3   121  LEU121      0.1561
    191  C        137.7200   27.8030   30.2170 C.2   121  LEU121      0.2260
    192  O        137.4300   28.9900   30.3170 O.2   121  LEU121     -0.2867
    193  CB       137.7200   26.7000   27.9580 C.3   121  LEU121      0.0270
    194  CG       136.5080   27.4900   27.4670 C.3   121  LEU121      0.0019
    195  CD1      136.3300   27.2580   26.0080 C.3   121  LEU121      0.0001
    196  CD2      135.2680   27.0530   28.2230 C.3   121  LEU121      0.0001
    197  N        139.5900   30.3030   32.2550 N.3   124  PHE124     -0.1241
    198  CA       139.6860   31.5580   31.5190 C.3   124  PHE124      0.1605
    199  C        138.4230   32.3980   31.7090 C.2   124  PHE124      0.2264
    200  O        138.5070   33.5950   31.9200 O.2   124  PHE124     -0.2867
    201  CB       139.9220   31.3150   30.0220 C.3   124  PHE124      0.0534
    202  CG       139.5800   32.5030   29.1590 C.ar  124  PHE124     -0.0203
    203  CD1      138.4290   32.4990   28.3730 C.ar  124  PHE124     -0.0042
    204  CD2      140.3650   33.6510   29.1860 C.ar  124  PHE124     -0.0042
    205  CE1      138.0670   33.6110   27.6420 C.ar  124  PHE124     -0.0003
    206  CE2      140.0080   34.7750   28.4520 C.ar  124  PHE124     -0.0003
    207  CZ       138.8550   34.7520   27.6810 C.ar  124  PHE124     -0.0000
@<TRIPOS>BOND
     1   162   163    1
     2   163   164    1
     3   163   166    1
     4   170   171    1
     5   164   165    2
     6   172   171    1
     7   172   173    2
     8   171   174    1
     9   166   167    1
    10   167   169    1
    11   167   168    1
    12   174   175    1
    13   156   157    2
    14   156   155    1
    15   159   161    1
    16   159   158    1
    17     1     2    1
    18   175   177    1
    19   175   176    1
    20    79    78    2
    21    91    93   ar
    22    91    90   ar
    23    16    17    1
    24    16    15    1
    25    89    90    1
    26    89    86    1
    27   155   158    1
    28   155   154    1
    29    93    94   ar
    30    90    92   ar
    31     7     6    1
    32     5     6    1
    33     5     2    1
    34     6     8    1
    35   158   160    1
    36    78    77    1
    37    14    15    1
    38    14    13    1
    39     2     3    1
    40   112   110    1
    41    87    86    1
    42    87    88    2
    43    85    86    1
    44    94    92   ar
    45    94    96   ar
    46    92    95   ar
    47     3     4    2
    48    13    10    1
    49   111   109    1
    50    77    76    1
    51    77    80    1
    52     9    10    1
    53   110   109    1
    54   109   106    1
    55    96    98   ar
    56    95    97   ar
    57    80    81    1
    58    10    11    1
    59    98    97   ar
    60    23    22    1
    61   106   107    1
    62   106   105    1
    63    70    69    2
    64    81    82    1
    65    65    63    1
    66    11    18   am
    67    11    12    2
    68   107   108    2
    69   105   101   am
    70   152   151    1
    71    18    19    1
    72    82    83    1
    73   153   151    1
    74    99   100    1
    75    69    68    1
    76    62    61    2
    77    22    19    1
    78   149   148    2
    79   151   150    1
    80    83    84    1
    81   148   147    1
    82   101   100    1
    83   101   102    2
    84    19    20    1
    85   103   100    1
    86   103   104    1
    87    63    64    1
    88    63    60    1
    89    61    60    1
    90    66    64    1
    91   150   147    1
    92    24    20   am
    93    24    25    1
    94    30    29    1
    95    30    31    1
    96    28    29    1
    97    28    25    1
    98    60    59    1
    99    68    67    1
   100    68    71    1
   101   147   146    1
   102    20    21    2
   103   113   114    1
   104    71    72    1
   105    25    26    1
   106   128   129    1
   107   128   125    1
   108   129   130    1
   109   146   144   am
   110   124   125    1
   111   124   115   am
   112    59    50   am
   113   126   125    1
   114   126   127    2
   115   145   144    2
   116    27    26    2
   117   114   115    1
   118   114   117    1
   119    74    73    2
   120   144   143    1
   121    51    50    2
   122    72    73    1
   123   178   179    1
   124   115   116    2
   125   118   117    1
   126   118   119    1
   127    50    49    1
   128    73    75   am
   129    45    43   ar
   130    45    47   ar
   131    42    43    1
   132    42    39    1
   133   130   131    1
   134    41    40    2
   135    43    44   ar
   136   179   182    1
   137   179   180    1
   138   183   182    1
   139   183   184    1
   140    47    46   ar
   141   143   142    1
   142   119   120    1
   143   188   186    1
   144   120   121    2
   145   185   186    2
   146   185   184    1
   147    44    46   ar
   148    40    39    1
   149    49    48    1
   150    49    52    1
   151    39    38    1
   152   142   134   am
   153   180   181    2
   154    38    34   am
   155   186   187    1
   156    52    53    1
   157   121   123    1
   158   121   122    1
   159    32    33    1
   160   134   135    2
   161   134   133    1
   162    36    37    1
   163    36    33    1
   164   132   133    1
   165    34    33    1
   166    34    35    2
   167   136   133    1
   168   136   137    1
   169    53    54    1
   170   139   137   ar
   171   139   141   ar
   172   137   138   ar
   173   195   194    1
   174    55    54    1
   175    55    56    2
   176    58    56    1
   177   141   140   ar
   178    56    57    1
   179   138   140   ar
   180   194   193    1
   181   194   196    1
   182   205   207   ar
   183   205   203   ar
   184   207   206   ar
   185   193   190    1
   186   203   202   ar
   187   206   204   ar
   188   190   189    1
   189   190   191    1
   190   202   204   ar
   191   202   201    1
   192   201   198    1
   193   191   192    2
   194   198   199    1
   195   198   197    1
   196   199   200    2
